# generated using pymatgen
data_VFe(PbO3)2
_symmetry_space_group_name_H-M   'P 1'
_cell_length_a   15.38570937
_cell_length_b   15.38373702
_cell_length_c   18.53453330
_cell_angle_alpha   89.98340446
_cell_angle_beta   90.00482848
_cell_angle_gamma   90.01323357
_symmetry_Int_Tables_number   1
_chemical_formula_structural   VFe(PbO3)2
_chemical_formula_sum   'V32 Fe32 Pb64 O192'
_cell_volume   4386.93293640
_cell_formula_units_Z   32
loop_
 _symmetry_equiv_pos_site_id
 _symmetry_equiv_pos_as_xyz
  1  'x, y, z'
loop_
 _atom_site_type_symbol
 _atom_site_label
 _atom_site_symmetry_multiplicity
 _atom_site_fract_x
 _atom_site_fract_y
 _atom_site_fract_z
 _atom_site_occupancy
  V  V0  1  0.62019845  0.37718614  0.63612207  1
  V  V1  1  0.12502462  0.87545040  0.39347185  1
  V  V2  1  0.37383475  0.62225820  0.13661493  1
  V  V3  1  0.87357901  0.37686864  0.63754525  1
  V  V4  1  0.62587082  0.37364750  0.88941089  1
  V  V5  1  0.37765235  0.37586006  0.38996382  1
  V  V6  1  0.87653905  0.37079470  0.14123419  1
  V  V7  1  0.12530587  0.87716922  0.88616628  1
  V  V8  1  0.12491350  0.62394405  0.39191257  1
  V  V9  1  0.62432779  0.62809830  0.88714318  1
  V  V10  1  0.37358585  0.37152034  0.13975392  1
  V  V11  1  0.12467251  0.62571640  0.13598395  1
  V  V12  1  0.37683156  0.62519283  0.64458401  1
  V  V13  1  0.62835869  0.87461049  0.14029135  1
  V  V14  1  0.37461621  0.62713308  0.38883744  1
  V  V15  1  0.37325249  0.87476941  0.63918027  1
  V  V16  1  0.87004663  0.87159139  0.39927008  1
  V  V17  1  0.87819659  0.37850585  0.38982405  1
  V  V18  1  0.87698296  0.12395439  0.14452735  1
  V  V19  1  0.12683775  0.12304844  0.88534476  1
  V  V20  1  0.87683297  0.62345492  0.13773350  1
  V  V21  1  0.87670294  0.12422304  0.88685414  1
  V  V22  1  0.62167530  0.87305858  0.38959140  1
  V  V23  1  0.12482924  0.12288853  0.14662359  1
  V  V24  1  0.62656500  0.12471129  0.88691030  1
  V  V25  1  0.12193328  0.62580714  0.64590837  1
  V  V26  1  0.62391498  0.87348786  0.63609582  1
  V  V27  1  0.12768898  0.37632865  0.63800386  1
  V  V28  1  0.62748489  0.37810627  0.38989833  1
  V  V29  1  0.87631475  0.87647458  0.14131963  1
  V  V30  1  0.62458196  0.62525724  0.39395972  1
  V  V31  1  0.12422867  0.37367248  0.14677905  1
  Fe  Fe32  1  0.62363184  0.12599866  0.63042596  1
  Fe  Fe33  1  0.37663785  0.12624567  0.63573430  1
  Fe  Fe34  1  0.12572907  0.12862222  0.39547529  1
  Fe  Fe35  1  0.87643540  0.87425222  0.63077296  1
  Fe  Fe36  1  0.12556641  0.62436094  0.87907159  1
  Fe  Fe37  1  0.11891375  0.87429578  0.13699153  1
  Fe  Fe38  1  0.37590295  0.12575178  0.88353872  1
  Fe  Fe39  1  0.37204025  0.87378356  0.13927529  1
  Fe  Fe40  1  0.37458604  0.62277852  0.88550709  1
  Fe  Fe41  1  0.87399353  0.62452279  0.87810735  1
  Fe  Fe42  1  0.87458396  0.12647168  0.62525953  1
  Fe  Fe43  1  0.62759849  0.37659299  0.13719671  1
  Fe  Fe44  1  0.12690101  0.12470970  0.62620474  1
  Fe  Fe45  1  0.12355904  0.36970756  0.88020202  1
  Fe  Fe46  1  0.62398073  0.12548692  0.38930325  1
  Fe  Fe47  1  0.87557954  0.62476679  0.39223785  1
  Fe  Fe48  1  0.12704050  0.38103529  0.38457508  1
  Fe  Fe49  1  0.62771026  0.12548571  0.14117480  1
  Fe  Fe50  1  0.37831282  0.87780819  0.88623094  1
  Fe  Fe51  1  0.87316596  0.37146260  0.88262973  1
  Fe  Fe52  1  0.37483208  0.86964889  0.38178148  1
  Fe  Fe53  1  0.87199750  0.87823554  0.88010181  1
  Fe  Fe54  1  0.87522485  0.12516342  0.39786452  1
  Fe  Fe55  1  0.37573726  0.12128111  0.37828395  1
  Fe  Fe56  1  0.62178184  0.62465847  0.63604363  1
  Fe  Fe57  1  0.62543862  0.87922051  0.88125264  1
  Fe  Fe58  1  0.87287896  0.62327970  0.64042826  1
  Fe  Fe59  1  0.37373230  0.12593773  0.14541350  1
  Fe  Fe60  1  0.62591632  0.62462479  0.13288969  1
  Fe  Fe61  1  0.12867368  0.87307974  0.63128101  1
  Fe  Fe62  1  0.37545474  0.37207411  0.88354184  1
  Fe  Fe63  1  0.37419411  0.37813926  0.63615788  1
  Pb  Pb64  1  0.00586578  -0.00668945  -0.00002594  1
  Pb  Pb65  1  -0.00262226  0.00879378  0.26224739  1
  Pb  Pb66  1  -0.00119720  -0.00412809  0.50393243  1
  Pb  Pb67  1  -0.00146969  -0.00018761  0.73236710  1
  Pb  Pb68  1  -0.00237775  0.25079999  -0.00341985  1
  Pb  Pb69  1  0.00164130  0.24080965  0.26416423  1
  Pb  Pb70  1  0.00579922  0.24417563  0.49932539  1
  Pb  Pb71  1  0.00195240  0.25529769  0.74446462  1
  Pb  Pb72  1  -0.00136351  0.50005198  -0.01426412  1
  Pb  Pb73  1  0.00091513  0.49887230  0.25136692  1
  Pb  Pb74  1  -0.00420555  0.50658540  0.50482748  1
  Pb  Pb75  1  0.00116599  0.49060666  0.75554378  1
  Pb  Pb76  1  -0.00067028  0.75124111  -0.01009579  1
  Pb  Pb77  1  -0.00585099  0.74405320  0.25226810  1
  Pb  Pb78  1  -0.00077064  0.75660766  0.50920286  1
  Pb  Pb79  1  -0.00903711  0.75375017  0.74682182  1
  Pb  Pb80  1  0.26331609  -0.00103965  0.00643969  1
  Pb  Pb81  1  0.25515513  -0.00335506  0.25160184  1
  Pb  Pb82  1  0.25523196  0.00928075  0.49701737  1
  Pb  Pb83  1  0.25249200  0.00675614  0.74341541  1
  Pb  Pb84  1  0.25745801  0.24602767  -0.00190513  1
  Pb  Pb85  1  0.24022105  0.24267721  0.26101699  1
  Pb  Pb86  1  0.25248304  0.24345467  0.49874585  1
  Pb  Pb87  1  0.25933035  0.24870443  0.74678076  1
  Pb  Pb88  1  0.24756679  0.49619829  -0.01247790  1
  Pb  Pb89  1  0.24586829  0.49723516  0.25103725  1
  Pb  Pb90  1  0.25751013  0.49571886  0.50398774  1
  Pb  Pb91  1  0.24772017  0.50516751  0.75578292  1
  Pb  Pb92  1  0.25211279  0.75449119  -0.00552134  1
  Pb  Pb93  1  0.25069416  0.75489099  0.24702181  1
  Pb  Pb94  1  0.24519694  0.75276439  0.50226376  1
  Pb  Pb95  1  0.25237847  0.74275990  0.75513185  1
  Pb  Pb96  1  0.49173205  0.00016520  0.00331159  1
  Pb  Pb97  1  0.49442935  0.00230964  0.24815594  1
  Pb  Pb98  1  0.49267255  0.01003591  0.49744041  1
  Pb  Pb99  1  0.50024642  -0.00487146  0.74960119  1
  Pb  Pb100  1  0.50045343  0.24072966  0.00178218  1
  Pb  Pb101  1  0.50654657  0.23880594  0.25128772  1
  Pb  Pb102  1  0.49538226  0.24161325  0.50071048  1
  Pb  Pb103  1  0.49133375  0.24633530  0.74679883  1
  Pb  Pb104  1  0.50741628  0.49728973  0.00009634  1
  Pb  Pb105  1  0.50337282  0.49985194  0.24651522  1
  Pb  Pb106  1  0.49736299  0.49668599  0.50415726  1
  Pb  Pb107  1  0.48832302  0.49798241  0.75508754  1
  Pb  Pb108  1  0.49711716  0.75557822  -0.00378121  1
  Pb  Pb109  1  0.49653671  0.75367257  0.24740492  1
  Pb  Pb110  1  0.50539195  0.74483691  0.50262621  1
  Pb  Pb111  1  0.49914940  0.76036931  0.75505978  1
  Pb  Pb112  1  0.74488847  0.00389616  -0.00138369  1
  Pb  Pb113  1  0.75177340  0.00789508  0.25806967  1
  Pb  Pb114  1  0.74889777  0.00667490  0.50224934  1
  Pb  Pb115  1  0.75261381  -0.00452721  0.73959417  1
  Pb  Pb116  1  0.73945078  0.24752357  0.00517397  1
  Pb  Pb117  1  0.74693191  0.24251638  0.25651222  1
  Pb  Pb118  1  0.74748168  0.24339905  0.50089543  1
  Pb  Pb119  1  0.75367868  0.25052145  0.74256848  1
  Pb  Pb120  1  0.74497221  0.49889288  -0.00151852  1
  Pb  Pb121  1  0.75568259  0.50504139  0.24931981  1
  Pb  Pb122  1  0.74942029  0.51011516  0.50684940  1
  Pb  Pb123  1  0.75350259  0.50494811  0.74931434  1
  Pb  Pb124  1  0.75240088  0.75164586  -0.00868593  1
  Pb  Pb125  1  0.75537587  0.74505163  0.25036275  1
  Pb  Pb126  1  0.75486542  0.74464150  0.50816617  1
  Pb  Pb127  1  0.75643419  0.75061425  0.74677837  1
  O  O128  1  0.12037482  0.00685544  0.16827023  1
  O  O129  1  0.12462786  -0.00890286  0.40988429  1
  O  O130  1  0.12946633  -0.00113865  0.65583995  1
  O  O131  1  0.11986339  0.00430203  0.91298903  1
  O  O132  1  0.12191344  0.24846636  0.17224473  1
  O  O133  1  0.12700655  0.25941228  0.41517119  1
  O  O134  1  0.12299674  0.25971207  0.65281484  1
  O  O135  1  0.11995617  0.23788426  0.91242875  1
  O  O136  1  0.12443639  0.50196174  0.16788778  1
  O  O137  1  0.12743855  0.50674366  0.41806520  1
  O  O138  1  0.12435635  0.50154803  0.66708669  1
  O  O139  1  0.12316868  0.49721787  0.90722685  1
  O  O140  1  0.12077075  0.74383470  0.16480556  1
  O  O141  1  0.12429154  0.74254232  0.41776747  1
  O  O142  1  0.13056134  0.74314625  0.66405450  1
  O  O143  1  0.12410478  0.75991141  0.90689030  1
  O  O144  1  0.37273756  -0.00192343  0.16691463  1
  O  O145  1  0.37505463  -0.00588051  0.40624999  1
  O  O146  1  0.37612035  -0.00804044  0.65826908  1
  O  O147  1  0.37594201  0.00355230  0.91766330  1
  O  O148  1  0.37200691  0.25910053  0.16441264  1
  O  O149  1  0.37824389  0.25970467  0.40479521  1
  O  O150  1  0.37476068  0.25379015  0.66056395  1
  O  O151  1  0.37703826  0.24738041  0.91879466  1
  O  O152  1  0.37160701  0.50294677  0.16386700  1
  O  O153  1  0.37761767  0.50514726  0.41799264  1
  O  O154  1  0.37460960  0.50537944  0.66622432  1
  O  O155  1  0.37733223  0.49655634  0.91443180  1
  O  O156  1  0.37388033  0.74158881  0.16183376  1
  O  O157  1  0.37516748  0.74513604  0.41728728  1
  O  O158  1  0.37609178  0.74778057  0.66489658  1
  O  O159  1  0.37617236  0.75067969  0.91552472  1
  O  O160  1  0.63062189  -0.00894696  0.16685880  1
  O  O161  1  0.62749731  -0.01045757  0.41005991  1
  O  O162  1  0.62055325  -0.00714505  0.65749169  1
  O  O163  1  0.62888988  0.00908943  0.91046467  1
  O  O164  1  0.62818970  0.25393037  0.16881512  1
  O  O165  1  0.62077738  0.26186826  0.41158026  1
  O  O166  1  0.62801416  0.26079640  0.66080043  1
  O  O167  1  0.62855979  0.24740154  0.91458461  1
  O  O168  1  0.62641566  0.50114056  0.16923499  1
  O  O169  1  0.62273954  0.49851143  0.41648860  1
  O  O170  1  0.62648971  0.49235220  0.66432367  1
  O  O171  1  0.62619783  0.49531435  0.91027939  1
  O  O172  1  0.62926677  0.75362496  0.16328841  1
  O  O173  1  0.62809941  0.75253906  0.41911616  1
  O  O174  1  0.61963103  0.75596833  0.66101904  1
  O  O175  1  0.62467117  0.74484349  0.90607362  1
  O  O176  1  0.87566536  0.00073155  0.17181862  1
  O  O177  1  0.87702716  -0.00952446  0.41650069  1
  O  O178  1  0.87282108  0.00024504  0.65355969  1
  O  O179  1  0.87200509  0.00826566  0.91251727  1
  O  O180  1  0.87844610  0.25322919  0.16623545  1
  O  O181  1  0.87220357  0.26364582  0.41499839  1
  O  O182  1  0.87574481  0.25773645  0.65702661  1
  O  O183  1  0.87325087  0.24019786  0.91659051  1
  O  O184  1  0.87754580  0.49821917  0.16451870  1
  O  O185  1  0.87001714  0.49491664  0.41854521  1
  O  O186  1  0.87671117  0.49337100  0.66450760  1
  O  O187  1  0.87309682  0.49831536  0.90867750  1
  O  O188  1  0.87608339  0.74904568  0.16668955  1
  O  O189  1  0.87555775  0.75182374  0.41945276  1
  O  O190  1  0.87275269  0.74992190  0.66008638  1
  O  O191  1  0.87282814  0.75147677  0.91083240  1
  O  O192  1  0.00048717  0.12702723  0.17441870  1
  O  O193  1  0.00021675  0.12615628  0.41835923  1
  O  O194  1  0.00058427  0.12708279  0.65070223  1
  O  O195  1  -0.00353820  0.12326164  0.91000698  1
  O  O196  1  -0.00387213  0.37715304  0.16926137  1
  O  O197  1  -0.00589156  0.38259093  0.40970020  1
  O  O198  1  -0.00039026  0.37866471  0.66063881  1
  O  O199  1  -0.00158561  0.36837498  0.91622161  1
  O  O200  1  -0.00006339  0.62293682  0.16639161  1
  O  O201  1  0.00617907  0.62206777  0.41575282  1
  O  O202  1  0.00550898  0.62474090  0.66112478  1
  O  O203  1  0.00058157  0.62796462  0.90772883  1
  O  O204  1  -0.00647183  0.87521805  0.17150362  1
  O  O205  1  0.00331053  0.86875978  0.41695097  1
  O  O206  1  0.00342095  0.87138867  0.65867879  1
  O  O207  1  0.00298630  0.88011354  0.91060163  1
  O  O208  1  0.24101498  0.12785678  0.16763648  1
  O  O209  1  0.25414941  0.12714248  0.41102545  1
  O  O210  1  0.24995131  0.12712758  0.66190012  1
  O  O211  1  0.24140082  0.12285826  0.90928733  1
  O  O212  1  0.25323156  0.37880505  0.16841353  1
  O  O213  1  0.25939637  0.38391517  0.41039697  1
  O  O214  1  0.24300449  0.38116933  0.65778405  1
  O  O215  1  0.24781266  0.36805329  0.91044306  1
  O  O216  1  0.25111977  0.62409436  0.16240052  1
  O  O217  1  0.24822566  0.62529799  0.41546003  1
  O  O218  1  0.25368887  0.62353311  0.66694430  1
  O  O219  1  0.24807351  0.62697409  0.91546741  1
  O  O220  1  0.24425641  0.87303855  0.16609576  1
  O  O221  1  0.24384822  0.86576924  0.41051794  1
  O  O222  1  0.25775319  0.86963519  0.66200047  1
  O  O223  1  0.24216840  0.88111956  0.90976569  1
  O  O224  1  0.50195067  0.12529623  0.16504369  1
  O  O225  1  0.49863726  0.12593558  0.41154737  1
  O  O226  1  0.50192485  0.12670834  0.66194040  1
  O  O227  1  0.50912829  0.12763456  0.90883711  1
  O  O228  1  0.49087621  0.38129505  0.16176295  1
  O  O229  1  0.49939160  0.38255828  0.41512693  1
  O  O230  1  0.50528494  0.37785902  0.65934140  1
  O  O231  1  0.50973400  0.36976453  0.91456942  1
  O  O232  1  0.49287440  0.62314219  0.16000631  1
  O  O233  1  0.50026329  0.62705073  0.41689415  1
  O  O234  1  0.49457025  0.62386874  0.66560396  1
  O  O235  1  0.50779303  0.62077201  0.91241549  1
  O  O236  1  0.50914592  0.87209026  0.16151619  1
  O  O237  1  0.50644237  0.86794580  0.40948707  1
  O  O238  1  0.49611361  0.87208634  0.66318315  1
  O  O239  1  0.50470384  0.87792712  0.91917144  1
  O  O240  1  0.75610022  0.12562552  0.17142363  1
  O  O241  1  0.74761545  0.12622187  0.41499766  1
  O  O242  1  0.74898850  0.12811181  0.65806370  1
  O  O243  1  0.75035275  0.12666113  0.91326482  1
  O  O244  1  0.76101491  0.37687810  0.16522649  1
  O  O245  1  0.74420486  0.37886735  0.41203263  1
  O  O246  1  0.75276834  0.37699797  0.65836570  1
  O  O247  1  0.74431838  0.37073548  0.91310499  1
  O  O248  1  0.75522349  0.62433760  0.16447246  1
  O  O249  1  0.74613676  0.62463816  0.41830161  1
  O  O250  1  0.74535912  0.62224162  0.66405123  1
  O  O251  1  0.74245098  0.62197766  0.91074126  1
  O  O252  1  0.75242748  0.87329902  0.16964828  1
  O  O253  1  0.75040082  0.87108582  0.41728231  1
  O  O254  1  0.74211328  0.87448257  0.65241178  1
  O  O255  1  0.74811721  0.87739864  0.91530474  1
  O  O256  1  0.12111528  0.12597204  0.05607027  1
  O  O257  1  0.12001207  0.13187417  0.29291241  1
  O  O258  1  0.13550681  0.12935559  0.52432804  1
  O  O259  1  0.12595365  0.12229990  0.79448779  1
  O  O260  1  0.12533028  0.37034795  0.05629990  1
  O  O261  1  0.12858231  0.38270629  0.28437646  1
  O  O262  1  0.12360584  0.38574524  0.54698517  1
  O  O263  1  0.11367977  0.36960202  0.78025371  1
  O  O264  1  0.12341245  0.62507643  0.04549024  1
  O  O265  1  0.12518053  0.62450983  0.30099286  1
  O  O266  1  0.12798018  0.62205131  0.55454864  1
  O  O267  1  0.13577836  0.62560467  0.77918169  1
  O  O268  1  0.11573788  0.88027044  0.03810732  1
  O  O269  1  0.12107818  0.86866609  0.30260112  1
  O  O270  1  0.12681027  0.86533122  0.53113239  1
  O  O271  1  0.12462404  0.88036972  0.79572904  1
  O  O272  1  0.36954327  0.12510292  0.04368090  1
  O  O273  1  0.37417667  0.12557536  0.27701068  1
  O  O274  1  0.37766709  0.12159218  0.53376927  1
  O  O275  1  0.37049501  0.13131946  0.78315082  1
  O  O276  1  0.37055605  0.37152031  0.04880577  1
  O  O277  1  0.38084925  0.38401827  0.29939712  1
  O  O278  1  0.37568734  0.38558636  0.53568579  1
  O  O279  1  0.38201765  0.37220470  0.78279067  1
  O  O280  1  0.37224302  0.62199340  0.04620756  1
  O  O281  1  0.37560399  0.62601555  0.29789167  1
  O  O282  1  0.37445399  0.62529427  0.55340664  1
  O  O283  1  0.37102513  0.62128985  0.78544856  1
  O  O284  1  0.37446956  0.88074941  0.03843513  1
  O  O285  1  0.37676874  0.86359356  0.28116289  1
  O  O286  1  0.37522059  0.87080075  0.54824352  1
  O  O287  1  0.38577066  0.87695577  0.78620742  1
  O  O288  1  0.63300375  0.12669661  0.04086044  1
  O  O289  1  0.62960322  0.12985588  0.28744830  1
  O  O290  1  0.62091111  0.12821704  0.52894990  1
  O  O291  1  0.63001746  0.12716143  0.79632454  1
  O  O292  1  0.63062557  0.37733961  0.03740250  1
  O  O293  1  0.62405518  0.38106140  0.29885343  1
  O  O294  1  0.62082550  0.37820426  0.54469905  1
  O  O295  1  0.62531110  0.37191886  0.79882903  1
  O  O296  1  0.62601271  0.61663462  0.03429168  1
  O  O297  1  0.62399761  0.62682540  0.30280964  1
  O  O298  1  0.62237103  0.62669322  0.53585795  1
  O  O299  1  0.62429195  0.62256120  0.79620968  1
  O  O300  1  0.63251784  0.87709790  0.04957420  1
  O  O301  1  0.62648852  0.86821584  0.29898812  1
  O  O302  1  0.61687920  0.87275359  0.54505567  1
  O  O303  1  0.61806950  0.87959029  0.78158385  1
  O  O304  1  0.87821713  0.12218148  0.05394233  1
  O  O305  1  0.87863038  0.12321814  0.29504383  1
  O  O306  1  0.86796655  0.12823603  0.52382185  1
  O  O307  1  0.87414318  0.12647636  0.79616651  1
  O  O308  1  0.87831234  0.37004873  0.05050884  1
  O  O309  1  0.87368633  0.37993382  0.29865587  1
  O  O310  1  0.87578561  0.37996532  0.54661269  1
  O  O311  1  0.88011893  0.36650682  0.78323714  1
  O  O312  1  0.87657450  0.62559623  0.04712416  1
  O  O313  1  0.87528970  0.62656553  0.29242983  1
  O  O314  1  0.87143657  0.61705561  0.53795151  1
  O  O315  1  0.86811883  0.62790723  0.77759529  1
  O  O316  1  0.87594620  0.87769428  0.05047557  1
  O  O317  1  0.87315586  0.87015581  0.30800669  1
  O  O318  1  0.88147329  0.87081893  0.52936770  1
  O  O319  1  0.87069466  0.87630064  0.78022281  1
