# generated using pymatgen
data_VFe(PbO3)2
_symmetry_space_group_name_H-M   'P 1'
_cell_length_a   15.38903737
_cell_length_b   15.39490076
_cell_length_c   18.48977817
_cell_angle_alpha   90.00363805
_cell_angle_beta   90.00554302
_cell_angle_gamma   89.98869564
_symmetry_Int_Tables_number   1
_chemical_formula_structural   VFe(PbO3)2
_chemical_formula_sum   'V32 Fe32 Pb64 O192'
_cell_volume   4380.46321220
_cell_formula_units_Z   32
loop_
 _symmetry_equiv_pos_site_id
 _symmetry_equiv_pos_as_xyz
  1  'x, y, z'
loop_
 _atom_site_type_symbol
 _atom_site_label
 _atom_site_symmetry_multiplicity
 _atom_site_fract_x
 _atom_site_fract_y
 _atom_site_fract_z
 _atom_site_occupancy
  V  V0  1  0.61925164  0.13434397  0.13825276  1
  V  V1  1  0.87368815  0.87463307  0.89381574  1
  V  V2  1  0.62546794  0.37498452  0.89082331  1
  V  V3  1  0.37658929  0.37646019  0.88687460  1
  V  V4  1  0.12709005  0.62540170  0.14187212  1
  V  V5  1  0.87278480  0.12636274  0.89745468  1
  V  V6  1  0.62639306  0.87615752  0.88824721  1
  V  V7  1  0.12613070  0.12608768  0.38979714  1
  V  V8  1  0.87384546  0.37694268  0.89273897  1
  V  V9  1  0.62738359  0.12641858  0.39101924  1
  V  V10  1  0.62055202  0.62543668  0.14817631  1
  V  V11  1  0.62641217  0.62463933  0.88547010  1
  V  V12  1  0.37705720  0.12231771  0.88905741  1
  V  V13  1  0.62652068  0.12342931  0.63672053  1
  V  V14  1  0.87650130  0.37288083  0.39003006  1
  V  V15  1  0.62219246  0.87302327  0.14389481  1
  V  V16  1  0.37651476  0.62726906  0.14461251  1
  V  V17  1  0.12080058  0.87738587  0.39438563  1
  V  V18  1  0.37249395  0.62075708  0.39906429  1
  V  V19  1  0.87389226  0.62456524  0.89017682  1
  V  V20  1  0.37529692  0.87050001  0.14241076  1
  V  V21  1  0.12528334  0.37331318  0.38809274  1
  V  V22  1  0.87405857  0.87872882  0.38738628  1
  V  V23  1  0.87747495  0.12389118  0.38932198  1
  V  V24  1  0.37586383  0.62402353  0.88229260  1
  V  V25  1  0.37641655  0.12301551  0.39252152  1
  V  V26  1  0.87645706  0.87860598  0.63436729  1
  V  V27  1  0.12293208  0.37282923  0.63423589  1
  V  V28  1  0.12528834  0.87263114  0.89142156  1
  V  V29  1  0.62014758  0.37507041  0.40336456  1
  V  V30  1  0.37735714  0.37897822  0.14528575  1
  V  V31  1  0.37177285  0.87347631  0.39736728  1
  Fe  Fe32  1  0.13030472  0.12454244  0.12791244  1
  Fe  Fe33  1  0.87684193  0.62326684  0.62639158  1
  Fe  Fe34  1  0.62812103  0.37292570  0.62101259  1
  Fe  Fe35  1  0.37723255  0.87275260  0.87845749  1
  Fe  Fe36  1  0.12665521  0.62612637  0.39526666  1
  Fe  Fe37  1  0.12478950  0.37672504  0.89002674  1
  Fe  Fe38  1  0.87187718  0.62762798  0.14043879  1
  Fe  Fe39  1  0.62486552  0.62637664  0.39718302  1
  Fe  Fe40  1  0.87674330  0.12518576  0.63272526  1
  Fe  Fe41  1  0.87311600  0.12360993  0.13317524  1
  Fe  Fe42  1  0.62674830  0.62527854  0.62221549  1
  Fe  Fe43  1  0.62700874  0.12671962  0.88464862  1
  Fe  Fe44  1  0.12185694  0.87715768  0.63066892  1
  Fe  Fe45  1  0.37367143  0.87797031  0.63515300  1
  Fe  Fe46  1  0.87638558  0.62715628  0.38904651  1
  Fe  Fe47  1  0.12605377  0.37845821  0.13366888  1
  Fe  Fe48  1  0.62264679  0.38128207  0.13660265  1
  Fe  Fe49  1  0.87700689  0.37164670  0.63033578  1
  Fe  Fe50  1  0.12338236  0.62507000  0.62807108  1
  Fe  Fe51  1  0.38181754  0.12302320  0.13657604  1
  Fe  Fe52  1  0.12827026  0.87162316  0.13327588  1
  Fe  Fe53  1  0.62309360  0.87987857  0.39955410  1
  Fe  Fe54  1  0.37158604  0.12777333  0.63510001  1
  Fe  Fe55  1  0.12318111  0.12529809  0.89596804  1
  Fe  Fe56  1  0.37165901  0.37168610  0.39933913  1
  Fe  Fe57  1  0.87142255  0.37765244  0.13688601  1
  Fe  Fe58  1  0.12312031  0.12441777  0.63439696  1
  Fe  Fe59  1  0.87458991  0.87238422  0.13460471  1
  Fe  Fe60  1  0.37264032  0.37166978  0.62583771  1
  Fe  Fe61  1  0.37334453  0.62261216  0.62703100  1
  Fe  Fe62  1  0.12331996  0.62436613  0.88269639  1
  Fe  Fe63  1  0.62856055  0.87777553  0.62446273  1
  Pb  Pb64  1  0.00272065  -0.00608351  0.00480844  1
  Pb  Pb65  1  0.00179825  -0.00011396  0.23651911  1
  Pb  Pb66  1  0.00624805  0.00764798  0.50395317  1
  Pb  Pb67  1  0.00792375  0.00884944  0.75004649  1
  Pb  Pb68  1  0.00534182  0.25114311  0.00501801  1
  Pb  Pb69  1  0.00238384  0.24929303  0.23647963  1
  Pb  Pb70  1  -0.00449565  0.24636634  0.50242807  1
  Pb  Pb71  1  0.00588678  0.24823857  0.75130451  1
  Pb  Pb72  1  0.00002347  0.49592751  0.00243408  1
  Pb  Pb73  1  -0.00418830  0.50478848  0.24917846  1
  Pb  Pb74  1  -0.00140286  0.50696239  0.49918557  1
  Pb  Pb75  1  0.00508078  0.50084536  0.74553681  1
  Pb  Pb76  1  -0.00849346  0.74744066  0.00404329  1
  Pb  Pb77  1  -0.00582102  0.74661782  0.25069739  1
  Pb  Pb78  1  0.00074627  0.74212255  0.50160028  1
  Pb  Pb79  1  0.00544882  0.74299447  0.74142778  1
  Pb  Pb80  1  0.24450083  -0.00111515  0.00164387  1
  Pb  Pb81  1  0.24879854  0.00337174  0.24471983  1
  Pb  Pb82  1  0.24622404  0.00013050  0.50800972  1
  Pb  Pb83  1  0.24960413  -0.00082831  0.74377347  1
  Pb  Pb84  1  0.24556719  0.24810101  0.00064490  1
  Pb  Pb85  1  0.25197423  0.25146522  0.24467853  1
  Pb  Pb86  1  0.24980960  0.24306421  0.50295384  1
  Pb  Pb87  1  0.24121707  0.24834933  0.74885176  1
  Pb  Pb88  1  0.24492139  0.49981160  -0.00274112  1
  Pb  Pb89  1  0.24663567  0.50496168  0.25920526  1
  Pb  Pb90  1  0.24961871  0.50745514  0.50599832  1
  Pb  Pb91  1  0.24273403  0.50034608  0.74205090  1
  Pb  Pb92  1  0.24802714  0.75214779  -0.00540470  1
  Pb  Pb93  1  0.24525026  0.74225182  0.25964442  1
  Pb  Pb94  1  0.24892362  0.76210956  0.50932287  1
  Pb  Pb95  1  0.25119575  0.74963963  0.73641218  1
  Pb  Pb96  1  0.49633582  0.00497164  -0.00030497  1
  Pb  Pb97  1  0.50559935  -0.00879850  0.25749197  1
  Pb  Pb98  1  0.48777847  -0.00100969  0.50851090  1
  Pb  Pb99  1  0.49656141  -0.00525337  0.74392277  1
  Pb  Pb100  1  0.49674136  0.24840679  0.00009598  1
  Pb  Pb101  1  0.49093135  0.26528546  0.26306555  1
  Pb  Pb102  1  0.49035753  0.24637273  0.50788860  1
  Pb  Pb103  1  0.50111119  0.25222103  0.73943907  1
  Pb  Pb104  1  0.50508267  0.49773057  -0.00016276  1
  Pb  Pb105  1  0.49806803  0.50271184  0.26228396  1
  Pb  Pb106  1  0.49763831  0.50835289  0.50805609  1
  Pb  Pb107  1  0.50185482  0.49843773  0.72924220  1
  Pb  Pb108  1  0.50092818  0.74827325  -0.00691171  1
  Pb  Pb109  1  0.51163890  0.75020872  0.26761488  1
  Pb  Pb110  1  0.50336464  0.75209924  0.50422966  1
  Pb  Pb111  1  0.49919450  0.75231580  0.73206454  1
  Pb  Pb112  1  0.75655113  0.00039103  0.00507085  1
  Pb  Pb113  1  0.74596838  -0.00557380  0.24897958  1
  Pb  Pb114  1  0.75096435  0.00262872  0.50139405  1
  Pb  Pb115  1  0.74632312  0.00515223  0.74894607  1
  Pb  Pb116  1  0.75528769  0.25276143  0.00580447  1
  Pb  Pb117  1  0.75224458  0.25642267  0.24874912  1
  Pb  Pb118  1  0.75702085  0.25467853  0.50370001  1
  Pb  Pb119  1  0.74987745  0.25022879  0.74322179  1
  Pb  Pb120  1  0.75138686  0.49471250  0.00533230  1
  Pb  Pb121  1  0.75235478  0.50748621  0.25580831  1
  Pb  Pb122  1  0.75383807  0.49963866  0.49879306  1
  Pb  Pb123  1  0.75066009  0.49872547  0.73234049  1
  Pb  Pb124  1  0.75596109  0.74546431  0.00472011  1
  Pb  Pb125  1  0.74824826  0.74304834  0.26029560  1
  Pb  Pb126  1  0.74688001  0.74552574  0.49702055  1
  Pb  Pb127  1  0.74942470  0.74855504  0.73509398  1
  O  O128  1  0.13179880  -0.00148951  0.16075810  1
  O  O129  1  0.12769562  -0.00011220  0.41495712  1
  O  O130  1  0.12143132  -0.00082770  0.66501564  1
  O  O131  1  0.12496550  -0.00693594  0.91510055  1
  O  O132  1  0.13126549  0.25144837  0.15775675  1
  O  O133  1  0.12132542  0.24950828  0.41339856  1
  O  O134  1  0.12289827  0.25470932  0.66226886  1
  O  O135  1  0.12511260  0.25186693  0.91997533  1
  O  O136  1  0.13101532  0.50726605  0.16736374  1
  O  O137  1  0.12447615  0.48915793  0.41146874  1
  O  O138  1  0.12313947  0.49315564  0.65690461  1
  O  O139  1  0.12406206  0.50233611  0.91841817  1
  O  O140  1  0.13168058  0.74317890  0.16601495  1
  O  O141  1  0.12776099  0.76040818  0.41399177  1
  O  O142  1  0.12139511  0.75138503  0.65594975  1
  O  O143  1  0.12385730  0.75272512  0.91367478  1
  O  O144  1  0.38100274  -0.01102018  0.16456160  1
  O  O145  1  0.37114889  0.00401824  0.41650749  1
  O  O146  1  0.37599713  0.00449278  0.66418185  1
  O  O147  1  0.37942484  0.00352048  0.90750112  1
  O  O148  1  0.38059835  0.25848667  0.16384395  1
  O  O149  1  0.37487384  0.24022360  0.41543491  1
  O  O150  1  0.37497795  0.25140829  0.66580776  1
  O  O151  1  0.37995620  0.25415214  0.91287373  1
  O  O152  1  0.37813196  0.50213774  0.17412291  1
  O  O153  1  0.37164889  0.50224837  0.41217526  1
  O  O154  1  0.37397381  0.49510766  0.65566309  1
  O  O155  1  0.37798237  0.49724495  0.91170395  1
  O  O156  1  0.37682676  0.75095448  0.17135739  1
  O  O157  1  0.37284128  0.75561495  0.41693204  1
  O  O158  1  0.37487344  0.74886157  0.65420778  1
  O  O159  1  0.37816635  0.74642290  0.90992373  1
  O  O160  1  0.61915846  -0.01008922  0.16455137  1
  O  O161  1  0.62408363  0.01174776  0.41639778  1
  O  O162  1  0.62912672  0.00410675  0.66108630  1
  O  O163  1  0.62578207  -0.00747810  0.91194662  1
  O  O164  1  0.62016848  0.24855966  0.15134063  1
  O  O165  1  0.62377045  0.24035965  0.42011648  1
  O  O166  1  0.62890497  0.24350884  0.65638050  1
  O  O167  1  0.62435035  0.25524023  0.91441658  1
  O  O168  1  0.62041105  0.50875299  0.17090429  1
  O  O169  1  0.62781268  0.49151925  0.41030835  1
  O  O170  1  0.62687196  0.49855956  0.64921887  1
  O  O171  1  0.62527787  0.50145595  0.91634196  1
  O  O172  1  0.61874694  0.74921542  0.17272510  1
  O  O173  1  0.62150506  0.75424119  0.41705721  1
  O  O174  1  0.62821722  0.75216883  0.65071663  1
  O  O175  1  0.62557040  0.74976738  0.91435115  1
  O  O176  1  0.86753913  -0.00173886  0.16365740  1
  O  O177  1  0.87829424  -0.00156965  0.41481146  1
  O  O178  1  0.87446315  -0.00440012  0.66277349  1
  O  O179  1  0.87176647  0.00090352  0.91844049  1
  O  O180  1  0.86887801  0.24820458  0.16489606  1
  O  O181  1  0.87836386  0.24732153  0.41351646  1
  O  O182  1  0.87494330  0.24872765  0.66574671  1
  O  O183  1  0.87090299  0.25107994  0.91612941  1
  O  O184  1  0.87232913  0.50349060  0.16967709  1
  O  O185  1  0.87608340  0.49014334  0.40642030  1
  O  O186  1  0.87615235  0.49771594  0.65727795  1
  O  O187  1  0.87221295  0.49662847  0.91360538  1
  O  O188  1  0.87322039  0.75093409  0.17090127  1
  O  O189  1  0.87977081  0.76335064  0.41061586  1
  O  O190  1  0.87494593  0.75745211  0.65773870  1
  O  O191  1  0.87257007  0.74946080  0.91791840  1
  O  O192  1  0.00145370  0.12356339  0.15340370  1
  O  O193  1  0.00131178  0.12197339  0.41322072  1
  O  O194  1  -0.00072040  0.12586695  0.66717042  1
  O  O195  1  -0.00989450  0.12443919  0.92000540  1
  O  O196  1  0.00030645  0.37770100  0.16276323  1
  O  O197  1  -0.00019454  0.36975936  0.41142431  1
  O  O198  1  0.00606815  0.37321183  0.66078536  1
  O  O199  1  -0.00912042  0.37459702  0.91585978  1
  O  O200  1  0.00923602  0.62575925  0.16035746  1
  O  O201  1  0.00111660  0.62614616  0.41235531  1
  O  O202  1  -0.00088623  0.62418342  0.65964343  1
  O  O203  1  -0.00669301  0.62481468  0.91474371  1
  O  O204  1  0.00220363  0.87302650  0.16089878  1
  O  O205  1  0.00278878  0.88150040  0.41172387  1
  O  O206  1  -0.00777337  0.87643999  0.66099584  1
  O  O207  1  0.00085364  0.87473986  0.91692668  1
  O  O208  1  0.25779756  0.12444561  0.16369154  1
  O  O209  1  0.25085176  0.12542113  0.41370307  1
  O  O210  1  0.24690719  0.12751843  0.66423576  1
  O  O211  1  0.26100784  0.12713312  0.91198355  1
  O  O212  1  0.25945367  0.37958423  0.16551185  1
  O  O213  1  0.24034343  0.36766963  0.41176107  1
  O  O214  1  0.24165121  0.37293478  0.65789075  1
  O  O215  1  0.26104454  0.37559586  0.91275291  1
  O  O216  1  0.25307614  0.62501738  0.17229087  1
  O  O217  1  0.25482401  0.62759280  0.41999457  1
  O  O218  1  0.24781995  0.62179231  0.65441149  1
  O  O219  1  0.25541622  0.62405983  0.90955714  1
  O  O220  1  0.25932989  0.87134122  0.16461127  1
  O  O221  1  0.25074982  0.87948881  0.41708293  1
  O  O222  1  0.24715472  0.87645265  0.66171871  1
  O  O223  1  0.24702201  0.87328362  0.90931499  1
  O  O224  1  0.50779130  0.11982370  0.17054029  1
  O  O225  1  0.49673591  0.12318991  0.41369971  1
  O  O226  1  0.50822350  0.12526141  0.65854287  1
  O  O227  1  0.49793470  0.12632004  0.91570282  1
  O  O228  1  0.49759147  0.38084210  0.17427441  1
  O  O229  1  0.50491409  0.37020361  0.41839213  1
  O  O230  1  0.50316796  0.37001571  0.64885603  1
  O  O231  1  0.49701822  0.37791723  0.91471203  1
  O  O232  1  0.49942162  0.62700257  0.17576459  1
  O  O233  1  0.49139551  0.62540342  0.41554957  1
  O  O234  1  0.50125895  0.62358282  0.65259190  1
  O  O235  1  0.50188097  0.62417686  0.91357692  1
  O  O236  1  0.49924460  0.86910685  0.17250785  1
  O  O237  1  0.48945959  0.88168357  0.41812531  1
  O  O238  1  0.50356871  0.87871416  0.65419151  1
  O  O239  1  0.50699719  0.87194681  0.91129260  1
  O  O240  1  0.73223556  0.12024734  0.16665987  1
  O  O241  1  0.74860402  0.12485346  0.41057213  1
  O  O242  1  0.74752705  0.12309525  0.66272299  1
  O  O243  1  0.75233381  0.12477012  0.91848700  1
  O  O244  1  0.74400974  0.37786325  0.17217193  1
  O  O245  1  0.75661733  0.36705835  0.41117043  1
  O  O246  1  0.74904318  0.37177278  0.65870734  1
  O  O247  1  0.75179871  0.37671045  0.91599521  1
  O  O248  1  0.73925766  0.62923472  0.16769018  1
  O  O249  1  0.75289098  0.62615084  0.41297325  1
  O  O250  1  0.75192390  0.62646496  0.65320321  1
  O  O251  1  0.74916495  0.62461958  0.91655542  1
  O  O252  1  0.73876887  0.86988230  0.16491154  1
  O  O253  1  0.75870225  0.88104360  0.40932673  1
  O  O254  1  0.75620744  0.87756723  0.66008603  1
  O  O255  1  0.74491961  0.87260034  0.91711088  1
  O  O256  1  0.13348165  0.12050511  0.02583018  1
  O  O257  1  0.12761203  0.12420394  0.29869174  1
  O  O258  1  0.12116894  0.12282833  0.53303024  1
  O  O259  1  0.11775375  0.12868024  0.79516589  1
  O  O260  1  0.12728855  0.38325905  0.03324695  1
  O  O261  1  0.12419206  0.37255744  0.29663491  1
  O  O262  1  0.12183549  0.37044112  0.54296407  1
  O  O263  1  0.12498959  0.37696082  0.79006517  1
  O  O264  1  0.13351859  0.62449174  0.05081668  1
  O  O265  1  0.13646709  0.62528117  0.29402503  1
  O  O266  1  0.12037975  0.61963779  0.52510600  1
  O  O267  1  0.11987107  0.61926073  0.78328701  1
  O  O268  1  0.13396778  0.87356089  0.03350466  1
  O  O269  1  0.12557932  0.87826929  0.30322752  1
  O  O270  1  0.12887955  0.88209413  0.52983921  1
  O  O271  1  0.12072065  0.87311436  0.80076880  1
  O  O272  1  0.38733970  0.12334927  0.03697384  1
  O  O273  1  0.37611648  0.12276520  0.30107525  1
  O  O274  1  0.37548258  0.12905172  0.53404851  1
  O  O275  1  0.38043656  0.12846861  0.79842286  1
  O  O276  1  0.38218058  0.38432540  0.05455091  1
  O  O277  1  0.38225184  0.36759056  0.29774466  1
  O  O278  1  0.37010971  0.36507564  0.52345342  1
  O  O279  1  0.37739557  0.37539861  0.79647335  1
  O  O280  1  0.37604466  0.62521151  0.05389614  1
  O  O281  1  0.36969879  0.62803075  0.30642285  1
  O  O282  1  0.37558711  0.61743498  0.52557838  1
  O  O283  1  0.37873041  0.62194471  0.79160297  1
  O  O284  1  0.37910489  0.86818466  0.05118175  1
  O  O285  1  0.37182840  0.87582057  0.30616466  1
  O  O286  1  0.36729865  0.88440154  0.53269052  1
  O  O287  1  0.37959090  0.87462975  0.77961678  1
  O  O288  1  0.61697558  0.12007310  0.04687257  1
  O  O289  1  0.62301133  0.12841941  0.29989113  1
  O  O290  1  0.62932849  0.12047919  0.54553262  1
  O  O291  1  0.63134281  0.12340494  0.78621690  1
  O  O292  1  0.62259179  0.38868818  0.03684973  1
  O  O293  1  0.62256258  0.36244727  0.31113247  1
  O  O294  1  0.63805210  0.37013762  0.51869816  1
  O  O295  1  0.62525523  0.37799331  0.80001549  1
  O  O296  1  0.61646148  0.62765860  0.05726330  1
  O  O297  1  0.62184043  0.63066577  0.29455204  1
  O  O298  1  0.62244120  0.62167313  0.52005183  1
  O  O299  1  0.62647243  0.62407768  0.79488469  1
  O  O300  1  0.61755834  0.86908316  0.05307833  1
  O  O301  1  0.61775722  0.87976159  0.29701785  1
  O  O302  1  0.63055145  0.88348655  0.52336156  1
  O  O303  1  0.62911729  0.87343584  0.79746276  1
  O  O304  1  0.86142521  0.12596459  0.03392491  1
  O  O305  1  0.87562835  0.12299755  0.29842489  1
  O  O306  1  0.87932928  0.12455734  0.53207010  1
  O  O307  1  0.87221877  0.12539315  0.80643994  1
  O  O308  1  0.86518911  0.37846443  0.03629834  1
  O  O309  1  0.87592943  0.36652974  0.29853652  1
  O  O310  1  0.87507787  0.36580821  0.52950611  1
  O  O311  1  0.87342599  0.37550134  0.80220769  1
  O  O312  1  0.87168658  0.63281197  0.03969234  1
  O  O313  1  0.87533156  0.62945809  0.28650325  1
  O  O314  1  0.88296745  0.62561123  0.52502008  1
  O  O315  1  0.87180678  0.62553900  0.79945112  1
  O  O316  1  0.87112711  0.86992999  0.03356511  1
  O  O317  1  0.87688060  0.88006636  0.29602342  1
  O  O318  1  0.87538253  0.88020459  0.54305748  1
  O  O319  1  0.87254987  0.87459817  0.80353495  1
