# generated using pymatgen
data_VFe(PbO3)2
_symmetry_space_group_name_H-M   'P 1'
_cell_length_a   15.38292909
_cell_length_b   15.39364460
_cell_length_c   18.52141737
_cell_angle_alpha   90.04171258
_cell_angle_beta   90.00743314
_cell_angle_gamma   89.99813788
_symmetry_Int_Tables_number   1
_chemical_formula_structural   VFe(PbO3)2
_chemical_formula_sum   'V32 Fe32 Pb64 O192'
_cell_volume   4385.85826784
_cell_formula_units_Z   32
loop_
 _symmetry_equiv_pos_site_id
 _symmetry_equiv_pos_as_xyz
  1  'x, y, z'
loop_
 _atom_site_type_symbol
 _atom_site_label
 _atom_site_symmetry_multiplicity
 _atom_site_fract_x
 _atom_site_fract_y
 _atom_site_fract_z
 _atom_site_occupancy
  V  V0  1  0.37551925  0.37468325  0.38951807  1
  V  V1  1  0.12300777  0.87593324  0.88277538  1
  V  V2  1  0.12074906  0.37470914  0.64022257  1
  V  V3  1  0.62596128  0.62858750  0.13829907  1
  V  V4  1  0.87259250  0.13832269  0.64174538  1
  V  V5  1  0.37625230  0.62837291  0.14167392  1
  V  V6  1  0.63023603  0.37528771  0.64270242  1
  V  V7  1  0.12680087  0.37437408  0.38949463  1
  V  V8  1  0.87408833  0.12453533  0.38645100  1
  V  V9  1  0.62052937  0.12976138  0.38835284  1
  V  V10  1  0.87905519  0.87238228  0.14433667  1
  V  V11  1  0.62696956  0.87339839  0.88463346  1
  V  V12  1  0.37762828  0.62700551  0.88011450  1
  V  V13  1  0.62766831  0.62731599  0.64023393  1
  V  V14  1  0.12528609  0.62862356  0.13996484  1
  V  V15  1  0.87650468  0.36701901  0.89818743  1
  V  V16  1  0.87174222  0.88804898  0.64451992  1
  V  V17  1  0.13018705  0.87098107  0.14055538  1
  V  V18  1  0.62655889  0.12651820  0.64168757  1
  V  V19  1  0.12301672  0.87667152  0.39850164  1
  V  V20  1  0.87463987  0.62528551  0.38720256  1
  V  V21  1  0.87703828  0.37547949  0.38554583  1
  V  V22  1  0.62365316  0.87114563  0.14113627  1
  V  V23  1  0.37596900  0.87570205  0.39838860  1
  V  V24  1  0.87623779  0.61878947  0.64043224  1
  V  V25  1  0.87527983  0.11695088  0.89272774  1
  V  V26  1  0.62355293  0.62151427  0.39204869  1
  V  V27  1  0.37216903  0.12565116  0.39271095  1
  V  V28  1  0.12906503  0.62680547  0.88526057  1
  V  V29  1  0.37434000  0.12266589  0.88541386  1
  V  V30  1  0.87596613  0.62417973  0.88938924  1
  V  V31  1  0.12500866  0.62377587  0.39781197  1
  Fe  Fe32  1  0.37442866  0.12839017  0.63315395  1
  Fe  Fe33  1  0.87304666  0.37739271  0.63850065  1
  Fe  Fe34  1  0.37252410  0.37606579  0.13238413  1
  Fe  Fe35  1  0.62663202  0.87671852  0.39822582  1
  Fe  Fe36  1  0.37515056  0.87187404  0.13643547  1
  Fe  Fe37  1  0.37425243  0.87460659  0.87876526  1
  Fe  Fe38  1  0.12414924  0.12025337  0.12838050  1
  Fe  Fe39  1  0.37327066  0.37558754  0.87848286  1
  Fe  Fe40  1  0.37459470  0.62558304  0.39945478  1
  Fe  Fe41  1  0.62979465  0.87824243  0.62873102  1
  Fe  Fe42  1  0.62427516  0.62732044  0.88055863  1
  Fe  Fe43  1  0.87632815  0.37858633  0.12784546  1
  Fe  Fe44  1  0.87329754  0.62952054  0.13592886  1
  Fe  Fe45  1  0.37583160  0.11969941  0.13247089  1
  Fe  Fe46  1  0.62508011  0.37525438  0.38268455  1
  Fe  Fe47  1  0.12066124  0.87484899  0.63168452  1
  Fe  Fe48  1  0.37747838  0.37180891  0.64614816  1
  Fe  Fe49  1  0.62474591  0.37771633  0.89534457  1
  Fe  Fe50  1  0.62564461  0.12098940  0.12581493  1
  Fe  Fe51  1  0.12755723  0.37693337  0.12575376  1
  Fe  Fe52  1  0.37789485  0.87734851  0.63453330  1
  Fe  Fe53  1  0.62233641  0.37789666  0.12805406  1
  Fe  Fe54  1  0.87661853  0.87489711  0.38616735  1
  Fe  Fe55  1  0.12525789  0.12370278  0.89313231  1
  Fe  Fe56  1  0.87362690  0.12156096  0.13231419  1
  Fe  Fe57  1  0.12271908  0.62273708  0.63154699  1
  Fe  Fe58  1  0.87577438  0.87186003  0.87825808  1
  Fe  Fe59  1  0.37622982  0.62111893  0.62794905  1
  Fe  Fe60  1  0.62451273  0.12266880  0.89721618  1
  Fe  Fe61  1  0.12382151  0.37594352  0.89818368  1
  Fe  Fe62  1  0.12539532  0.12732139  0.39261664  1
  Fe  Fe63  1  0.12035267  0.12735946  0.63239093  1
  Pb  Pb64  1  -0.00016393  0.00230776  0.00298886  1
  Pb  Pb65  1  0.00559115  0.01070777  0.25428599  1
  Pb  Pb66  1  0.00616672  0.00411369  0.50415903  1
  Pb  Pb67  1  0.00909425  0.00819693  0.75267785  1
  Pb  Pb68  1  0.00277343  0.24237234  0.00538204  1
  Pb  Pb69  1  0.00459036  0.24855553  0.23556799  1
  Pb  Pb70  1  0.00193854  0.24964283  0.50036851  1
  Pb  Pb71  1  0.01778150  0.25282032  0.76444962  1
  Pb  Pb72  1  -0.00534916  0.50022087  0.00474720  1
  Pb  Pb73  1  -0.00250837  0.49779456  0.24243372  1
  Pb  Pb74  1  0.00081916  0.50048087  0.50177267  1
  Pb  Pb75  1  0.00612106  0.48986562  0.75649147  1
  Pb  Pb76  1  -0.00273017  0.74517633  -0.00194993  1
  Pb  Pb77  1  -0.00430461  0.75473634  0.25501917  1
  Pb  Pb78  1  0.00475697  0.74863961  0.50449181  1
  Pb  Pb79  1  -0.00509629  0.75145579  0.74616781  1
  Pb  Pb80  1  0.25611526  0.00516848  0.00013597  1
  Pb  Pb81  1  0.24768719  0.00698805  0.24977362  1
  Pb  Pb82  1  0.25010564  -0.00181650  0.50785467  1
  Pb  Pb83  1  0.24818519  0.00262301  0.73751032  1
  Pb  Pb84  1  0.25170262  0.25511951  -0.00385910  1
  Pb  Pb85  1  0.24643627  0.24624775  0.23636969  1
  Pb  Pb86  1  0.25864916  0.25113789  0.50710406  1
  Pb  Pb87  1  0.25107894  0.24947152  0.74891195  1
  Pb  Pb88  1  0.25434952  0.49245551  -0.00135631  1
  Pb  Pb89  1  0.25411576  0.50153551  0.24878909  1
  Pb  Pb90  1  0.25197051  0.50348802  0.50602392  1
  Pb  Pb91  1  0.25600442  0.49699789  0.74453639  1
  Pb  Pb92  1  0.25378232  0.75663386  -0.00542275  1
  Pb  Pb93  1  0.25862029  0.74383473  0.26092686  1
  Pb  Pb94  1  0.24833902  0.75642345  0.50950365  1
  Pb  Pb95  1  0.25134281  0.75173222  0.73313554  1
  Pb  Pb96  1  0.49233931  0.00235823  -0.00053217  1
  Pb  Pb97  1  0.50010675  -0.00067771  0.24645577  1
  Pb  Pb98  1  0.49309762  0.00053502  0.50636683  1
  Pb  Pb99  1  0.49414734  -0.00518649  0.74715245  1
  Pb  Pb100  1  0.49606721  0.25556026  -0.00422219  1
  Pb  Pb101  1  0.50338576  0.25134257  0.23422051  1
  Pb  Pb102  1  0.49119831  0.25384340  0.50629979  1
  Pb  Pb103  1  0.50232916  0.25403445  0.75645784  1
  Pb  Pb104  1  0.50101960  0.49338060  -0.00388136  1
  Pb  Pb105  1  0.50294137  0.49500091  0.24936811  1
  Pb  Pb106  1  0.49321796  0.49707120  0.50436819  1
  Pb  Pb107  1  0.50371082  0.49778668  0.75068891  1
  Pb  Pb108  1  0.49437637  0.75767678  -0.00517521  1
  Pb  Pb109  1  0.49773391  0.74438044  0.25837452  1
  Pb  Pb110  1  0.49726492  0.75526213  0.50657302  1
  Pb  Pb111  1  0.49481391  0.75470037  0.74153545  1
  Pb  Pb112  1  0.75018546  0.00184864  0.00201344  1
  Pb  Pb113  1  0.74686261  -0.00726302  0.25167815  1
  Pb  Pb114  1  0.74823625  -0.00021527  0.49836763  1
  Pb  Pb115  1  0.74318618  0.00844905  0.75758343  1
  Pb  Pb116  1  0.74134749  0.24955036  0.00494442  1
  Pb  Pb117  1  0.74772920  0.25110719  0.23233680  1
  Pb  Pb118  1  0.75684226  0.25694427  0.49712308  1
  Pb  Pb119  1  0.73622849  0.25145589  0.76623720  1
  Pb  Pb120  1  0.74917199  0.49889349  0.00152043  1
  Pb  Pb121  1  0.74693107  0.49387072  0.24355783  1
  Pb  Pb122  1  0.75694017  0.49553691  0.49926702  1
  Pb  Pb123  1  0.74015559  0.49849381  0.75940395  1
  Pb  Pb124  1  0.75495503  0.74728244  -0.00359987  1
  Pb  Pb125  1  0.74683210  0.76155179  0.26110463  1
  Pb  Pb126  1  0.74943284  0.75310259  0.50002537  1
  Pb  Pb127  1  0.75157981  0.74919461  0.74975464  1
  O  O128  1  0.12121098  -0.01313009  0.16445644  1
  O  O129  1  0.12412707  -0.00400413  0.41757332  1
  O  O130  1  0.11575313  0.00096517  0.66099365  1
  O  O131  1  0.12281578  -0.01015500  0.90721372  1
  O  O132  1  0.12464997  0.24841691  0.14935387  1
  O  O133  1  0.12344881  0.25849594  0.41413994  1
  O  O134  1  0.11767166  0.25474554  0.66501072  1
  O  O135  1  0.12153915  0.24824033  0.91846125  1
  O  O136  1  0.12788942  0.51263567  0.16023613  1
  O  O137  1  0.12574106  0.49324218  0.41763157  1
  O  O138  1  0.12241006  0.49339839  0.66468406  1
  O  O139  1  0.12356597  0.51399969  0.91217449  1
  O  O140  1  0.12455001  0.75313274  0.17181198  1
  O  O141  1  0.12511733  0.75263053  0.41944642  1
  O  O142  1  0.11941543  0.74899549  0.65790611  1
  O  O143  1  0.12367368  0.74792836  0.91129749  1
  O  O144  1  0.37642667  -0.00654220  0.16967100  1
  O  O145  1  0.37463265  -0.00048956  0.41857743  1
  O  O146  1  0.37965775  0.00489306  0.66108575  1
  O  O147  1  0.37403852  -0.00028994  0.90886517  1
  O  O148  1  0.37355501  0.24787637  0.15939582  1
  O  O149  1  0.37304731  0.25466625  0.41595726  1
  O  O150  1  0.37817365  0.24682689  0.67149372  1
  O  O151  1  0.37415454  0.24261355  0.90463697  1
  O  O152  1  0.37212037  0.50891215  0.16658656  1
  O  O153  1  0.37312148  0.49092996  0.41533441  1
  O  O154  1  0.37883742  0.49870584  0.66277789  1
  O  O155  1  0.37069189  0.51222780  0.90267431  1
  O  O156  1  0.37473369  0.74892622  0.17506264  1
  O  O157  1  0.37410310  0.75765053  0.42015837  1
  O  O158  1  0.38046866  0.74743073  0.65340651  1
  O  O159  1  0.37228933  0.74633296  0.90956023  1
  O  O160  1  0.62701299  -0.01162428  0.16067882  1
  O  O161  1  0.62787351  0.01329568  0.41661409  1
  O  O162  1  0.63569129  0.00758477  0.65956485  1
  O  O163  1  0.62761895  -0.01112651  0.91208618  1
  O  O164  1  0.62457783  0.24978021  0.14894090  1
  O  O165  1  0.62800912  0.24616862  0.41231068  1
  O  O166  1  0.63308328  0.24829801  0.66907931  1
  O  O167  1  0.62705672  0.24975189  0.91797859  1
  O  O168  1  0.62050414  0.51096172  0.16026224  1
  O  O169  1  0.62574463  0.50295159  0.41621591  1
  O  O170  1  0.62755841  0.49431181  0.66396364  1
  O  O171  1  0.62571926  0.50663717  0.91446727  1
  O  O172  1  0.62459217  0.74822719  0.17034756  1
  O  O173  1  0.62668590  0.74081508  0.41832887  1
  O  O174  1  0.63025569  0.74440727  0.65391409  1
  O  O175  1  0.62563243  0.75453458  0.91113376  1
  O  O176  1  0.87240298  -0.01261272  0.16511999  1
  O  O177  1  0.87483545  0.00806258  0.41070766  1
  O  O178  1  0.86997699  0.00165259  0.66105193  1
  O  O179  1  0.87565601  -0.00127125  0.90812070  1
  O  O180  1  0.87590369  0.25070530  0.15529577  1
  O  O181  1  0.87584027  0.25034202  0.41180555  1
  O  O182  1  0.87174056  0.24962327  0.66310442  1
  O  O183  1  0.87667253  0.24957028  0.91496762  1
  O  O184  1  0.87748177  0.50577690  0.16383157  1
  O  O185  1  0.87592716  0.50005860  0.41425140  1
  O  O186  1  0.87053727  0.50334347  0.67046492  1
  O  O187  1  0.87742943  0.50897654  0.91306328  1
  O  O188  1  0.87359306  0.75358401  0.17167888  1
  O  O189  1  0.87638723  0.74476111  0.41479681  1
  O  O190  1  0.86991865  0.73562418  0.66420934  1
  O  O191  1  0.87748851  0.74693809  0.91324233  1
  O  O192  1  -0.00031464  0.11777403  0.16341804  1
  O  O193  1  -0.00832245  0.12821111  0.41451598  1
  O  O194  1  -0.01306324  0.12403108  0.66489088  1
  O  O195  1  -0.00738359  0.12227495  0.91661469  1
  O  O196  1  0.00417384  0.38082715  0.15823842  1
  O  O197  1  0.00350985  0.37672174  0.41239534  1
  O  O198  1  0.00129175  0.37686986  0.66702216  1
  O  O199  1  -0.00741578  0.38098523  0.91943113  1
  O  O200  1  0.00814220  0.63227052  0.16454860  1
  O  O201  1  -0.00158589  0.62250859  0.41808909  1
  O  O202  1  -0.00755822  0.61944946  0.66129938  1
  O  O203  1  0.00124166  0.62944753  0.91204041  1
  O  O204  1  -0.00089326  0.86843516  0.16351526  1
  O  O205  1  0.00331532  0.87476263  0.41525937  1
  O  O206  1  -0.01187573  0.87034950  0.66285009  1
  O  O207  1  0.00551746  0.86954903  0.90858544  1
  O  O208  1  0.24747653  0.11634743  0.16133838  1
  O  O209  1  0.25283968  0.12645702  0.41739630  1
  O  O210  1  0.24643976  0.12712990  0.65584812  1
  O  O211  1  0.25571968  0.12071910  0.91060355  1
  O  O212  1  0.24804209  0.37990931  0.16500903  1
  O  O213  1  0.24839167  0.37401338  0.41578830  1
  O  O214  1  0.24032488  0.37198007  0.66281136  1
  O  O215  1  0.25197750  0.37812446  0.91179693  1
  O  O216  1  0.24655504  0.63268670  0.16806286  1
  O  O217  1  0.24551574  0.62341215  0.42151600  1
  O  O218  1  0.24952540  0.62198066  0.65411076  1
  O  O219  1  0.24812032  0.63147580  0.90550083  1
  O  O220  1  0.24413569  0.87156181  0.16485998  1
  O  O221  1  0.24955555  0.87666242  0.42150791  1
  O  O222  1  0.24857014  0.87698451  0.65486428  1
  O  O223  1  0.24229902  0.86951654  0.90620549  1
  O  O224  1  0.50339436  0.11815664  0.16172570  1
  O  O225  1  0.50308922  0.12851066  0.41215743  1
  O  O226  1  0.51271933  0.12807372  0.66183543  1
  O  O227  1  0.49269638  0.12060082  0.91091616  1
  O  O228  1  0.49790676  0.38073264  0.16083277  1
  O  O229  1  0.49395903  0.37352895  0.41048227  1
  O  O230  1  0.51285290  0.36937259  0.66689497  1
  O  O231  1  0.49479973  0.37750975  0.91176920  1
  O  O232  1  0.50196023  0.63085862  0.16826322  1
  O  O233  1  0.50716818  0.62276610  0.41671037  1
  O  O234  1  0.51010550  0.61938623  0.65824488  1
  O  O235  1  0.49217989  0.63006464  0.90429159  1
  O  O236  1  0.50698635  0.86895549  0.16526915  1
  O  O237  1  0.49565475  0.87754165  0.41554924  1
  O  O238  1  0.50797579  0.87730997  0.65896925  1
  O  O239  1  0.50552020  0.87236092  0.90821781  1
  O  O240  1  0.74856707  0.11943696  0.16087325  1
  O  O241  1  0.75478555  0.12933574  0.41151797  1
  O  O242  1  0.75493607  0.12648809  0.67239446  1
  O  O243  1  0.75947682  0.12314363  0.91785684  1
  O  O244  1  0.74858423  0.38178918  0.15659371  1
  O  O245  1  0.75410068  0.37589254  0.41044055  1
  O  O246  1  0.74557609  0.37433912  0.67016587  1
  O  O247  1  0.75880021  0.37953335  0.91695493  1
  O  O248  1  0.74160872  0.62712498  0.15963775  1
  O  O249  1  0.74951409  0.62254884  0.41459991  1
  O  O250  1  0.74745952  0.61824645  0.66662286  1
  O  O251  1  0.75667073  0.62924232  0.90944809  1
  O  O252  1  0.74692940  0.86862308  0.16682929  1
  O  O253  1  0.75460029  0.87602592  0.42014999  1
  O  O254  1  0.75459895  0.86972129  0.66399900  1
  O  O255  1  0.74705234  0.87127311  0.90977521  1
  O  O256  1  0.11976636  0.11057431  0.02734719  1
  O  O257  1  0.12083342  0.11851697  0.29282110  1
  O  O258  1  0.11102530  0.12859676  0.53138530  1
  O  O259  1  0.11405158  0.12554568  0.79161698  1
  O  O260  1  0.13134866  0.38570391  0.02486392  1
  O  O261  1  0.12785775  0.37657766  0.29898628  1
  O  O262  1  0.11903188  0.37402263  0.54899988  1
  O  O263  1  0.11317651  0.37273546  0.79586877  1
  O  O264  1  0.12671875  0.63367160  0.04929674  1
  O  O265  1  0.12291389  0.62361038  0.30655013  1
  O  O266  1  0.11536328  0.61880974  0.53134560  1
  O  O267  1  0.12555616  0.62568599  0.79433889  1
  O  O268  1  0.12939980  0.86884179  0.04961923  1
  O  O269  1  0.12769033  0.87414301  0.30755692  1
  O  O270  1  0.12005143  0.87608729  0.53095293  1
  O  O271  1  0.12116639  0.87393090  0.79136040  1
  O  O272  1  0.37378590  0.11184044  0.03235643  1
  O  O273  1  0.37371790  0.12378215  0.30179538  1
  O  O274  1  0.38283263  0.13515166  0.53196331  1
  O  O275  1  0.37482140  0.11961329  0.79413400  1
  O  O276  1  0.37064480  0.38190477  0.03215576  1
  O  O277  1  0.37026181  0.37512699  0.29901514  1
  O  O278  1  0.37879191  0.36468578  0.54378203  1
  O  O279  1  0.37478494  0.37545105  0.77703624  1
  O  O280  1  0.37544023  0.63050240  0.05076673  1
  O  O281  1  0.37261084  0.63238450  0.29882718  1
  O  O282  1  0.38071480  0.61573996  0.52562374  1
  O  O283  1  0.37642979  0.63017008  0.78881608  1
  O  O284  1  0.37572718  0.86674107  0.03639577  1
  O  O285  1  0.37079823  0.87555287  0.30735437  1
  O  O286  1  0.37894510  0.88189754  0.53262200  1
  O  O287  1  0.38313466  0.87328664  0.77885246  1
  O  O288  1  0.62963557  0.11399014  0.02410098  1
  O  O289  1  0.62305109  0.12659601  0.29766045  1
  O  O290  1  0.63125482  0.13240891  0.55109972  1
  O  O291  1  0.63630162  0.12404567  0.79547112  1
  O  O292  1  0.62160327  0.38400670  0.02651740  1
  O  O293  1  0.62299622  0.38308160  0.28389135  1
  O  O294  1  0.63052183  0.37282197  0.55145485  1
  O  O295  1  0.62953513  0.37336667  0.79318595  1
  O  O296  1  0.62107281  0.63282575  0.04761237  1
  O  O297  1  0.62360128  0.62270433  0.30081507  1
  O  O298  1  0.63181655  0.61841707  0.54950281  1
  O  O299  1  0.62670552  0.62122167  0.78093045  1
  O  O300  1  0.62509391  0.86617071  0.05058911  1
  O  O301  1  0.63378283  0.87461710  0.29737967  1
  O  O302  1  0.62891469  0.87770623  0.52762555  1
  O  O303  1  0.62801472  0.87423117  0.79311807  1
  O  O304  1  0.88002950  0.11096970  0.03282548  1
  O  O305  1  0.87618773  0.12490294  0.29552585  1
  O  O306  1  0.86953422  0.13372480  0.55019631  1
  O  O307  1  0.87407428  0.12389758  0.80147675  1
  O  O308  1  0.87561734  0.38655547  0.02782590  1
  O  O309  1  0.87945747  0.37755834  0.29474141  1
  O  O310  1  0.86870147  0.37718688  0.53905498  1
  O  O311  1  0.87753249  0.37407205  0.80677833  1
  O  O312  1  0.87908342  0.63443007  0.03641674  1
  O  O313  1  0.87583342  0.62455575  0.29616821  1
  O  O314  1  0.87250294  0.61632784  0.54890126  1
  O  O315  1  0.87797997  0.62514033  0.79824510  1
  O  O316  1  0.87478248  0.86909457  0.05309919  1
  O  O317  1  0.87087542  0.87069794  0.28673354  1
  O  O318  1  0.87262991  0.87836512  0.55313995  1
  O  O319  1  0.87345627  0.86689790  0.77884130  1
