# generated using pymatgen
data_VFe(PbO3)2
_symmetry_space_group_name_H-M   'P 1'
_cell_length_a   15.37049368
_cell_length_b   15.38354723
_cell_length_c   18.44171209
_cell_angle_alpha   90.00861977
_cell_angle_beta   89.98264096
_cell_angle_gamma   90.00127180
_symmetry_Int_Tables_number   1
_chemical_formula_structural   VFe(PbO3)2
_chemical_formula_sum   'V32 Fe32 Pb64 O192'
_cell_volume   4360.59265215
_cell_formula_units_Z   32
loop_
 _symmetry_equiv_pos_site_id
 _symmetry_equiv_pos_as_xyz
  1  'x, y, z'
loop_
 _atom_site_type_symbol
 _atom_site_label
 _atom_site_symmetry_multiplicity
 _atom_site_fract_x
 _atom_site_fract_y
 _atom_site_fract_z
 _atom_site_occupancy
  V  V0  1  0.87641283  0.62890361  0.14067413  1
  V  V1  1  0.37462926  0.12019518  0.13765868  1
  V  V2  1  0.12634025  0.37541295  0.39156282  1
  V  V3  1  0.87320646  0.37857614  0.89047641  1
  V  V4  1  0.37350137  0.12630730  0.88397054  1
  V  V5  1  0.12484994  0.37613278  0.88829653  1
  V  V6  1  0.62359364  0.62438267  0.88980106  1
  V  V7  1  0.62505442  0.37173605  0.38840103  1
  V  V8  1  0.62148191  0.12565293  0.64376435  1
  V  V9  1  0.37366806  0.37296609  0.39242749  1
  V  V10  1  0.12664180  0.12241338  0.13845925  1
  V  V11  1  0.12624889  0.87216185  0.88227023  1
  V  V12  1  0.62675665  0.87466712  0.64132523  1
  V  V13  1  0.37407299  0.62601350  0.14196196  1
  V  V14  1  0.37404576  0.87420795  0.63953977  1
  V  V15  1  0.12377583  0.62622053  0.39206722  1
  V  V16  1  0.37334788  0.87647895  0.39169083  1
  V  V17  1  0.62517568  0.87236880  0.14167970  1
  V  V18  1  0.87441938  0.62234366  0.88815262  1
  V  V19  1  0.12599788  0.62582828  0.63640149  1
  V  V20  1  0.87530401  0.87680853  0.39159919  1
  V  V21  1  0.12241647  0.37432881  0.63588396  1
  V  V22  1  0.12579139  0.87840069  0.40218672  1
  V  V23  1  0.12733684  0.87138544  0.14210774  1
  V  V24  1  0.37589079  0.12626426  0.39659601  1
  V  V25  1  0.37055300  0.62407442  0.88739956  1
  V  V26  1  0.37513390  0.87704118  0.14256121  1
  V  V27  1  0.62352231  0.62378097  0.63294301  1
  V  V28  1  0.87507668  0.12621636  0.39087510  1
  V  V29  1  0.87368024  0.12630362  0.64205554  1
  V  V30  1  0.87674425  0.37277584  0.39016871  1
  V  V31  1  0.62385055  0.12272472  0.13617949  1
  Fe  Fe32  1  0.62476252  0.87967900  0.38578702  1
  Fe  Fe33  1  0.12322975  0.12639390  0.39517982  1
  Fe  Fe34  1  0.12525805  0.87443988  0.62923482  1
  Fe  Fe35  1  0.12629535  0.62787876  0.13513443  1
  Fe  Fe36  1  0.37501069  0.37855798  0.89168857  1
  Fe  Fe37  1  0.62392943  0.12593819  0.88049376  1
  Fe  Fe38  1  0.62509104  0.62590516  0.38052800  1
  Fe  Fe39  1  0.62469037  0.37661322  0.88623215  1
  Fe  Fe40  1  0.12549929  0.12605638  0.63758996  1
  Fe  Fe41  1  0.37441504  0.62454494  0.39260609  1
  Fe  Fe42  1  0.37385758  0.36991068  0.13280511  1
  Fe  Fe43  1  0.37582824  0.37702831  0.63222304  1
  Fe  Fe44  1  0.12189973  0.62375961  0.88557745  1
  Fe  Fe45  1  0.87538006  0.87095643  0.87804954  1
  Fe  Fe46  1  0.12707786  0.37789336  0.13676401  1
  Fe  Fe47  1  0.87484735  0.12049219  0.12962788  1
  Fe  Fe48  1  0.37735636  0.12594444  0.63490463  1
  Fe  Fe49  1  0.62601893  0.37451306  0.63738874  1
  Fe  Fe50  1  0.87586951  0.87607138  0.13555709  1
  Fe  Fe51  1  0.87778233  0.12566289  0.88548073  1
  Fe  Fe52  1  0.87105110  0.62351666  0.62818382  1
  Fe  Fe53  1  0.62675694  0.12443908  0.38831938  1
  Fe  Fe54  1  0.87609667  0.62552725  0.39477192  1
  Fe  Fe55  1  0.87631706  0.37244588  0.13362013  1
  Fe  Fe56  1  0.62482476  0.62605667  0.14483128  1
  Fe  Fe57  1  0.12588830  0.12649012  0.87880779  1
  Fe  Fe58  1  0.37850596  0.62548440  0.62929717  1
  Fe  Fe59  1  0.87505898  0.37581972  0.63353928  1
  Fe  Fe60  1  0.62330052  0.87338959  0.88230842  1
  Fe  Fe61  1  0.62401127  0.37546890  0.13420435  1
  Fe  Fe62  1  0.37446246  0.87121262  0.88285680  1
  Fe  Fe63  1  0.87517995  0.87496479  0.64304307  1
  Pb  Pb64  1  -0.00872718  0.00135620  -0.00789189  1
  Pb  Pb65  1  0.00068792  0.00275516  0.25000932  1
  Pb  Pb66  1  -0.00140706  -0.00494707  0.50898083  1
  Pb  Pb67  1  -0.00054983  0.00047370  0.74681465  1
  Pb  Pb68  1  -0.00493765  0.24921772  -0.00001851  1
  Pb  Pb69  1  -0.00055530  0.24960526  0.24506792  1
  Pb  Pb70  1  -0.00025963  0.24963093  0.50437935  1
  Pb  Pb71  1  -0.00250934  0.24047898  0.75416265  1
  Pb  Pb72  1  0.00011087  0.49210510  0.00472645  1
  Pb  Pb73  1  -0.00062276  0.50176883  0.24731265  1
  Pb  Pb74  1  -0.00615760  0.49946225  0.50263812  1
  Pb  Pb75  1  0.00386260  0.50734522  0.74669477  1
  Pb  Pb76  1  -0.00412014  0.75330390  -0.00158716  1
  Pb  Pb77  1  -0.00684772  0.74595510  0.25649057  1
  Pb  Pb78  1  -0.00781638  0.76136095  0.51080563  1
  Pb  Pb79  1  -0.00454041  0.75287283  0.74443853  1
  Pb  Pb80  1  0.24934840  0.00067165  -0.00838384  1
  Pb  Pb81  1  0.24289573  0.00587807  0.25831083  1
  Pb  Pb82  1  0.24756792  0.00997772  0.50962403  1
  Pb  Pb83  1  0.24649627  0.00341908  0.74348778  1
  Pb  Pb84  1  0.24990603  0.25876083  -0.00012605  1
  Pb  Pb85  1  0.24658144  0.24637507  0.25019071  1
  Pb  Pb86  1  0.25055059  0.24209006  0.50855127  1
  Pb  Pb87  1  0.25309468  0.24994100  0.74456612  1
  Pb  Pb88  1  0.23997076  0.49823217  0.00458663  1
  Pb  Pb89  1  0.25228779  0.50081592  0.24847744  1
  Pb  Pb90  1  0.25764755  0.49962439  0.50340676  1
  Pb  Pb91  1  0.25246393  0.50198229  0.74642159  1
  Pb  Pb92  1  0.24421154  0.74462206  -0.00006522  1
  Pb  Pb93  1  0.25653108  0.74709679  0.25771816  1
  Pb  Pb94  1  0.25003662  0.74828707  0.50370530  1
  Pb  Pb95  1  0.25015579  0.74752366  0.74808509  1
  Pb  Pb96  1  0.50211474  -0.00288179  -0.00813073  1
  Pb  Pb97  1  0.50803277  -0.00001442  0.25587602  1
  Pb  Pb98  1  0.49846179  0.00439602  0.50291966  1
  Pb  Pb99  1  0.50408889  -0.00534965  0.75377206  1
  Pb  Pb100  1  0.50180709  0.25944711  -0.00445178  1
  Pb  Pb101  1  0.50174753  0.24711278  0.24669476  1
  Pb  Pb102  1  0.50134738  0.25948233  0.50746749  1
  Pb  Pb103  1  0.49644507  0.26451620  0.75332436  1
  Pb  Pb104  1  0.50627499  0.49859730  0.00490964  1
  Pb  Pb105  1  0.50161876  0.50022470  0.24853195  1
  Pb  Pb106  1  0.49880226  0.49507620  0.49894543  1
  Pb  Pb107  1  0.49534510  0.49002123  0.75080367  1
  Pb  Pb108  1  0.50385660  0.74570574  0.00056218  1
  Pb  Pb109  1  0.49976698  0.74515290  0.25775623  1
  Pb  Pb110  1  0.50301027  0.74321455  0.49475360  1
  Pb  Pb111  1  0.49991936  0.75700976  0.75112082  1
  Pb  Pb112  1  0.75539315  -0.00063042  -0.01201807  1
  Pb  Pb113  1  0.74231909  -0.00033120  0.25046286  1
  Pb  Pb114  1  0.75228394  -0.00154067  0.50356076  1
  Pb  Pb115  1  0.74925709  0.00785544  0.75713832  1
  Pb  Pb116  1  0.75102809  0.24774258  -0.00595840  1
  Pb  Pb117  1  0.75159584  0.24902938  0.24227238  1
  Pb  Pb118  1  0.74697950  0.26133982  0.50564927  1
  Pb  Pb119  1  0.74847407  0.24498324  0.75354481  1
  Pb  Pb120  1  0.74048764  0.50176363  0.00846448  1
  Pb  Pb121  1  0.74971813  0.50226902  0.24820901  1
  Pb  Pb122  1  0.75281617  0.50064118  0.49723644  1
  Pb  Pb123  1  0.74820327  0.49325476  0.74360461  1
  Pb  Pb124  1  0.75363484  0.75485116  -0.00149126  1
  Pb  Pb125  1  0.75101145  0.74169959  0.25883347  1
  Pb  Pb126  1  0.74992944  0.74590567  0.49706152  1
  Pb  Pb127  1  0.75211439  0.75450220  0.74803747  1
  O  O128  1  0.12840741  -0.00071562  0.16734852  1
  O  O129  1  0.12438331  -0.00034372  0.42022474  1
  O  O130  1  0.12572864  -0.00131015  0.65736744  1
  O  O131  1  0.12753820  -0.00870504  0.90460819  1
  O  O132  1  0.12887430  0.24069849  0.15972826  1
  O  O133  1  0.12448661  0.25758690  0.41696452  1
  O  O134  1  0.12387689  0.25846559  0.65898163  1
  O  O135  1  0.12373415  0.25841181  0.90951966  1
  O  O136  1  0.12656341  0.50475193  0.16772171  1
  O  O137  1  0.12479384  0.49626794  0.41588772  1
  O  O138  1  0.12586941  0.50064166  0.66166667  1
  O  O139  1  0.12465527  0.49601856  0.91476223  1
  O  O140  1  0.12889966  0.75591293  0.16559481  1
  O  O141  1  0.12606696  0.74265328  0.41580752  1
  O  O142  1  0.12762515  0.74365919  0.65688701  1
  O  O143  1  0.12653539  0.75338413  0.91187042  1
  O  O144  1  0.37322919  0.00005365  0.17108875  1
  O  O145  1  0.37203655  0.00063834  0.41661733  1
  O  O146  1  0.37658418  -0.00746979  0.66279132  1
  O  O147  1  0.37199170  0.00434834  0.90868448  1
  O  O148  1  0.37334096  0.23987113  0.16505086  1
  O  O149  1  0.37455878  0.24719202  0.41683110  1
  O  O150  1  0.37633486  0.25182728  0.66094390  1
  O  O151  1  0.37192041  0.24362274  0.91062861  1
  O  O152  1  0.37453959  0.50781798  0.15967653  1
  O  O153  1  0.37446548  0.49418236  0.41314001  1
  O  O154  1  0.37510141  0.50292389  0.66036636  1
  O  O155  1  0.37668110  0.51059371  0.91451039  1
  O  O156  1  0.37314033  0.75326908  0.17064987  1
  O  O157  1  0.37128268  0.75843337  0.41416996  1
  O  O158  1  0.37653759  0.75387614  0.66078562  1
  O  O159  1  0.37761572  0.74020335  0.91624940  1
  O  O160  1  0.62075573  0.00033380  0.16382034  1
  O  O161  1  0.62576661  0.00181793  0.42262895  1
  O  O162  1  0.62556255  -0.00281618  0.66508300  1
  O  O163  1  0.62227079  0.00011332  0.91140722  1
  O  O164  1  0.62232124  0.24137825  0.15850790  1
  O  O165  1  0.62530854  0.25228416  0.41592276  1
  O  O166  1  0.62609029  0.24153647  0.66121174  1
  O  O167  1  0.62461669  0.25049632  0.91113590  1
  O  O168  1  0.62390927  0.49980564  0.16911345  1
  O  O169  1  0.62537591  0.49017041  0.40731358  1
  O  O170  1  0.62549539  0.50834091  0.65284856  1
  O  O171  1  0.62787707  0.50764623  0.91667499  1
  O  O172  1  0.62171454  0.75775896  0.16407287  1
  O  O173  1  0.62550048  0.75438551  0.41084770  1
  O  O174  1  0.62425993  0.75422587  0.66047293  1
  O  O175  1  0.62578352  0.74152938  0.91478308  1
  O  O176  1  0.87815054  -0.00067799  0.16614109  1
  O  O177  1  0.87761262  0.00148617  0.41595276  1
  O  O178  1  0.87399880  0.00729377  0.66486253  1
  O  O179  1  0.87836465  -0.00382587  0.90469199  1
  O  O180  1  0.87671842  0.24356302  0.16387630  1
  O  O181  1  0.87578246  0.24668327  0.41536023  1
  O  O182  1  0.87325828  0.24560810  0.66411703  1
  O  O183  1  0.87885575  0.26015046  0.90997888  1
  O  O184  1  0.87669095  0.50896251  0.16153623  1
  O  O185  1  0.87538487  0.49351400  0.41210216  1
  O  O186  1  0.87333443  0.50190224  0.66178284  1
  O  O187  1  0.87477348  0.50204700  0.91622633  1
  O  O188  1  0.87630159  0.74979426  0.16899429  1
  O  O189  1  0.87764260  0.75913098  0.41409909  1
  O  O190  1  0.87363183  0.74530002  0.66155420  1
  O  O191  1  0.87489819  0.74198649  0.91193146  1
  O  O192  1  0.00947495  0.12069637  0.15951798  1
  O  O193  1  -0.00794072  0.12612637  0.41824538  1
  O  O194  1  -0.00552892  0.12745420  0.66043313  1
  O  O195  1  0.00456922  0.12667482  0.91189426  1
  O  O196  1  0.00134247  0.37410783  0.16791889  1
  O  O197  1  0.00352013  0.37402125  0.41546981  1
  O  O198  1  0.00572986  0.37897497  0.66204613  1
  O  O199  1  0.00034708  0.38056051  0.91306591  1
  O  O200  1  -0.00337878  0.63061593  0.16458774  1
  O  O201  1  0.00811938  0.62114098  0.41628310  1
  O  O202  1  0.00624760  0.62290148  0.65605497  1
  O  O203  1  -0.00816756  0.62270529  0.91119177  1
  O  O204  1  0.01056623  0.87655267  0.16703082  1
  O  O205  1  -0.00402163  0.87773820  0.41920344  1
  O  O206  1  0.00343869  0.87278485  0.66343560  1
  O  O207  1  0.00778684  0.86998578  0.90618887  1
  O  O208  1  0.24805331  0.12008882  0.16794371  1
  O  O209  1  0.25519255  0.12631026  0.41925961  1
  O  O210  1  0.25212718  0.12592764  0.66378149  1
  O  O211  1  0.25232889  0.12447779  0.91122870  1
  O  O212  1  0.25192780  0.37385586  0.16895936  1
  O  O213  1  0.24578669  0.37443090  0.41440285  1
  O  O214  1  0.24211253  0.37854788  0.65901312  1
  O  O215  1  0.24453312  0.37725226  0.91050876  1
  O  O216  1  0.25574676  0.63007970  0.16711358  1
  O  O217  1  0.24220526  0.62124309  0.41737913  1
  O  O218  1  0.24644646  0.62426225  0.66024718  1
  O  O219  1  0.25444359  0.62607495  0.90974834  1
  O  O220  1  0.24703188  0.87764390  0.17071720  1
  O  O221  1  0.25407035  0.87740515  0.42043206  1
  O  O222  1  0.25460565  0.87210814  0.65780540  1
  O  O223  1  0.24611960  0.87086825  0.91117919  1
  O  O224  1  0.50110339  0.12107927  0.16297260  1
  O  O225  1  0.49442038  0.12400315  0.41644994  1
  O  O226  1  0.50551972  0.11849007  0.66106661  1
  O  O227  1  0.49088540  0.12471431  0.90779241  1
  O  O228  1  0.49725318  0.37241324  0.16593105  1
  O  O229  1  0.50311320  0.37069328  0.41222556  1
  O  O230  1  0.50170381  0.37632758  0.66465999  1
  O  O231  1  0.49973392  0.37910806  0.91693425  1
  O  O232  1  0.49177473  0.63090345  0.16719410  1
  O  O233  1  0.50150298  0.62476154  0.41164132  1
  O  O234  1  0.50789413  0.63183871  0.65715205  1
  O  O235  1  0.50348995  0.62424268  0.91131633  1
  O  O236  1  0.49930320  0.87760260  0.16733086  1
  O  O237  1  0.49085465  0.87957773  0.41327709  1
  O  O238  1  0.50104827  0.87513365  0.66321808  1
  O  O239  1  0.49810033  0.87039939  0.91657238  1
  O  O240  1  0.74194068  0.12036423  0.15615455  1
  O  O241  1  0.75888279  0.12407056  0.41646479  1
  O  O242  1  0.74984156  0.12291490  0.66606603  1
  O  O243  1  0.75119687  0.12678939  0.91119035  1
  O  O244  1  0.75078307  0.37362127  0.16488846  1
  O  O245  1  0.74788521  0.37053153  0.41102327  1
  O  O246  1  0.75035986  0.37322002  0.66486994  1
  O  O247  1  0.75647135  0.37914013  0.91036374  1
  O  O248  1  0.75716628  0.62960968  0.16623775  1
  O  O249  1  0.74819727  0.62476947  0.41320092  1
  O  O250  1  0.74010842  0.62968227  0.66008038  1
  O  O251  1  0.75225833  0.62390476  0.91436176  1
  O  O252  1  0.74239507  0.87844802  0.15935155  1
  O  O253  1  0.75792865  0.87981241  0.41274930  1
  O  O254  1  0.74342099  0.87584699  0.66231218  1
  O  O255  1  0.74958585  0.86973390  0.90854497  1
  O  O256  1  0.13148954  0.11765312  0.04754195  1
  O  O257  1  0.12932235  0.12251587  0.29464764  1
  O  O258  1  0.13059457  0.13227048  0.53479988  1
  O  O259  1  0.12297694  0.13011071  0.77811679  1
  O  O260  1  0.12908143  0.38080325  0.03611701  1
  O  O261  1  0.12527401  0.37539431  0.30012929  1
  O  O262  1  0.12048022  0.37663198  0.54425662  1
  O  O263  1  0.12227277  0.37889276  0.79698693  1
  O  O264  1  0.13313905  0.62690673  0.03485491  1
  O  O265  1  0.12466075  0.62489267  0.30017926  1
  O  O266  1  0.12826863  0.62159939  0.54503060  1
  O  O267  1  0.12594101  0.62050965  0.78569388  1
  O  O268  1  0.12874616  0.87348700  0.05093286  1
  O  O269  1  0.12433518  0.87367514  0.31031902  1
  O  O270  1  0.11877085  0.86781397  0.52721203  1
  O  O271  1  0.12948080  0.86765612  0.79067056  1
  O  O272  1  0.37053079  0.11842258  0.04667923  1
  O  O273  1  0.37326800  0.12518776  0.30509619  1
  O  O274  1  0.37109235  0.12134747  0.53436047  1
  O  O275  1  0.37097772  0.12638310  0.79237025  1
  O  O276  1  0.36899271  0.36749007  0.03178261  1
  O  O277  1  0.37430735  0.36944771  0.30101860  1
  O  O278  1  0.38364102  0.37772937  0.53038616  1
  O  O279  1  0.38335018  0.37877643  0.79003753  1
  O  O280  1  0.37395393  0.63202540  0.05068519  1
  O  O281  1  0.37045717  0.63224516  0.29187763  1
  O  O282  1  0.37263138  0.62506599  0.52817513  1
  O  O283  1  0.37185437  0.62620548  0.79531397  1
  O  O284  1  0.37230508  0.87504318  0.05148592  1
  O  O285  1  0.36977331  0.87736452  0.30019896  1
  O  O286  1  0.37792316  0.87438662  0.54814162  1
  O  O287  1  0.37832325  0.86703776  0.78336707  1
  O  O288  1  0.61969437  0.11958689  0.04535824  1
  O  O289  1  0.62455165  0.11792320  0.28831362  1
  O  O290  1  0.62730751  0.12141575  0.55198516  1
  O  O291  1  0.63032259  0.12108490  0.77966826  1
  O  O292  1  0.62367930  0.38399303  0.03343078  1
  O  O293  1  0.62338965  0.36679542  0.29694921  1
  O  O294  1  0.62312091  0.36765457  0.53582691  1
  O  O295  1  0.61806739  0.38186645  0.78484659  1
  O  O296  1  0.62482340  0.62087251  0.04384379  1
  O  O297  1  0.62652844  0.63027879  0.27814842  1
  O  O298  1  0.62574126  0.62963279  0.54083485  1
  O  O299  1  0.62506760  0.62340261  0.79890725  1
  O  O300  1  0.61926701  0.87403592  0.05015603  1
  O  O301  1  0.62566287  0.88748097  0.28545068  1
  O  O302  1  0.62420906  0.87704885  0.54975399  1
  O  O303  1  0.61592677  0.87124977  0.78176528  1
  O  O304  1  0.88098505  0.12470636  0.02891775  1
  O  O305  1  0.87644294  0.12440183  0.29948302  1
  O  O306  1  0.87074699  0.12624973  0.55037492  1
  O  O307  1  0.87616245  0.13179284  0.78377716  1
  O  O308  1  0.88288064  0.37512874  0.03369474  1
  O  O309  1  0.87760749  0.36860826  0.29863106  1
  O  O310  1  0.87376819  0.37203659  0.53256669  1
  O  O311  1  0.87658121  0.38177040  0.79913241  1
  O  O312  1  0.87574987  0.63278920  0.04924875  1
  O  O313  1  0.87755564  0.63432136  0.29344750  1
  O  O314  1  0.87112006  0.62090268  0.52590678  1
  O  O315  1  0.87202560  0.62069125  0.79699640  1
  O  O316  1  0.88231461  0.86786668  0.03562304  1
  O  O317  1  0.87923878  0.87773460  0.29999401  1
  O  O318  1  0.88057778  0.87819954  0.54095393  1
  O  O319  1  0.87698288  0.86623281  0.77666974  1
