# generated using pymatgen
data_VFe(PbO3)2
_symmetry_space_group_name_H-M   'P 1'
_cell_length_a   15.38317550
_cell_length_b   15.39572472
_cell_length_c   18.44619556
_cell_angle_alpha   90.00709204
_cell_angle_beta   90.04419642
_cell_angle_gamma   90.01207538
_symmetry_Int_Tables_number   1
_chemical_formula_structural   VFe(PbO3)2
_chemical_formula_sum   'V32 Fe32 Pb64 O192'
_cell_volume   4368.70579076
_cell_formula_units_Z   32
loop_
 _symmetry_equiv_pos_site_id
 _symmetry_equiv_pos_as_xyz
  1  'x, y, z'
loop_
 _atom_site_type_symbol
 _atom_site_label
 _atom_site_symmetry_multiplicity
 _atom_site_fract_x
 _atom_site_fract_y
 _atom_site_fract_z
 _atom_site_occupancy
  V  V0  1  0.37513315  0.12483917  0.64506472  1
  V  V1  1  0.12235372  0.88312802  0.90397039  1
  V  V2  1  0.12767066  0.37800485  0.38435469  1
  V  V3  1  0.12314090  0.12581712  0.64028732  1
  V  V4  1  0.12504050  0.87196030  0.38696712  1
  V  V5  1  0.63608439  0.37382873  0.89196114  1
  V  V6  1  0.87147324  0.87342009  0.38226621  1
  V  V7  1  0.87607822  0.62362094  0.89457586  1
  V  V8  1  0.37498943  0.87465191  0.13483446  1
  V  V9  1  0.38190385  0.37585851  0.88903400  1
  V  V10  1  0.87571213  0.87397528  0.64406556  1
  V  V11  1  0.88348860  0.37390671  0.15286743  1
  V  V12  1  0.62794999  0.12562467  0.64259084  1
  V  V13  1  0.62480457  0.12577972  0.14097574  1
  V  V14  1  0.37222392  0.87587480  0.88554466  1
  V  V15  1  0.62749663  0.37399770  0.63521656  1
  V  V16  1  0.87668015  0.37260647  0.63579599  1
  V  V17  1  0.12229876  0.62797342  0.63900956  1
  V  V18  1  0.88035453  0.37562394  0.89147229  1
  V  V19  1  0.87525574  0.12445513  0.63865970  1
  V  V20  1  0.87469337  0.12666355  0.89463271  1
  V  V21  1  0.37890014  0.37215093  0.64067547  1
  V  V22  1  0.12884117  0.62632662  0.14062369  1
  V  V23  1  0.12939449  0.37634017  0.14208283  1
  V  V24  1  0.62505411  0.62695258  0.38750561  1
  V  V25  1  0.62464078  0.37688106  0.14002206  1
  V  V26  1  0.37319995  0.12183856  0.38730589  1
  V  V27  1  0.12730207  0.37496649  0.63826779  1
  V  V28  1  0.12449721  0.62377623  0.89267509  1
  V  V29  1  0.37330824  0.62769250  0.38943326  1
  V  V30  1  0.12636821  0.37858348  0.89371911  1
  V  V31  1  0.37735019  0.12634570  0.13675004  1
  Fe  Fe32  1  0.37658846  0.62412388  0.13034327  1
  Fe  Fe33  1  0.62180680  0.37613359  0.38399507  1
  Fe  Fe34  1  0.62225537  0.62505642  0.12660569  1
  Fe  Fe35  1  0.87543113  0.87460017  0.12413838  1
  Fe  Fe36  1  0.37522418  0.37603577  0.38144927  1
  Fe  Fe37  1  0.12828294  0.12235173  0.38068830  1
  Fe  Fe38  1  0.87364530  0.37655513  0.37577605  1
  Fe  Fe39  1  0.62489940  0.87590274  0.64253427  1
  Fe  Fe40  1  0.87529774  0.62937891  0.37995564  1
  Fe  Fe41  1  0.37417804  0.12563253  0.88459389  1
  Fe  Fe42  1  0.87665374  0.12039718  0.37467062  1
  Fe  Fe43  1  0.87785345  0.87683631  0.90096709  1
  Fe  Fe44  1  0.12674491  0.62712350  0.38140891  1
  Fe  Fe45  1  0.37420597  0.62190776  0.64154426  1
  Fe  Fe46  1  0.62665961  0.62171116  0.89554045  1
  Fe  Fe47  1  0.87363885  0.62282819  0.13983191  1
  Fe  Fe48  1  0.87413817  0.12669028  0.14679520  1
  Fe  Fe49  1  0.12699657  0.87486895  0.12378480  1
  Fe  Fe50  1  0.87766356  0.62451842  0.63509544  1
  Fe  Fe51  1  0.37220312  0.62444431  0.88801352  1
  Fe  Fe52  1  0.12860931  0.12631231  0.13580360  1
  Fe  Fe53  1  0.12501101  0.13249139  0.89696164  1
  Fe  Fe54  1  0.37078502  0.87535519  0.63657900  1
  Fe  Fe55  1  0.12413238  0.87804535  0.63790420  1
  Fe  Fe56  1  0.62441308  0.87649053  0.88388281  1
  Fe  Fe57  1  0.37607348  0.37356409  0.14202040  1
  Fe  Fe58  1  0.62307300  0.87676902  0.13190581  1
  Fe  Fe59  1  0.62202807  0.87314026  0.38147989  1
  Fe  Fe60  1  0.62372860  0.12149696  0.38066258  1
  Fe  Fe61  1  0.62408881  0.13073150  0.88541358  1
  Fe  Fe62  1  0.62715296  0.62291697  0.63661502  1
  Fe  Fe63  1  0.37334995  0.87407189  0.38778546  1
  Pb  Pb64  1  -0.00657376  0.01993905  0.01577857  1
  Pb  Pb65  1  0.00197338  -0.00166876  0.23605816  1
  Pb  Pb66  1  0.00505680  -0.00425791  0.49309760  1
  Pb  Pb67  1  -0.00438891  -0.00057412  0.75790775  1
  Pb  Pb68  1  -0.00117907  0.24637324  0.01166918  1
  Pb  Pb69  1  0.00304737  0.23652411  0.25452249  1
  Pb  Pb70  1  -0.00169795  0.24805141  0.48597499  1
  Pb  Pb71  1  0.00537814  0.24384142  0.75252035  1
  Pb  Pb72  1  -0.00373102  0.50338728  0.00974066  1
  Pb  Pb73  1  0.00187318  0.51189543  0.25772724  1
  Pb  Pb74  1  -0.00704922  0.50676538  0.49235838  1
  Pb  Pb75  1  0.00110848  0.49710526  0.74639887  1
  Pb  Pb76  1  -0.00509974  0.75079256  0.00885506  1
  Pb  Pb77  1  -0.00230717  0.74738184  0.24128120  1
  Pb  Pb78  1  -0.00392416  0.74573223  0.49731198  1
  Pb  Pb79  1  -0.00828134  0.76448736  0.76176911  1
  Pb  Pb80  1  0.24700254  0.00861759  0.00185701  1
  Pb  Pb81  1  0.25066443  -0.00361704  0.24453662  1
  Pb  Pb82  1  0.24925641  -0.00894180  0.50357426  1
  Pb  Pb83  1  0.24706393  0.00576746  0.75344260  1
  Pb  Pb84  1  0.25393077  0.25499967  0.00358061  1
  Pb  Pb85  1  0.25048649  0.24485954  0.25205071  1
  Pb  Pb86  1  0.25049850  0.25066819  0.49571234  1
  Pb  Pb87  1  0.24707766  0.24282764  0.75675260  1
  Pb  Pb88  1  0.26163974  0.49717921  0.00725935  1
  Pb  Pb89  1  0.25546162  0.50153812  0.25111294  1
  Pb  Pb90  1  0.25553998  0.50734402  0.50030220  1
  Pb  Pb91  1  0.25472789  0.50102111  0.75257726  1
  Pb  Pb92  1  0.25066475  0.75170155  0.00006730  1
  Pb  Pb93  1  0.25755018  0.75746884  0.24993655  1
  Pb  Pb94  1  0.25216313  0.75792287  0.50558133  1
  Pb  Pb95  1  0.25321818  0.75023487  0.74855551  1
  Pb  Pb96  1  0.50581790  -0.00029813  -0.00621253  1
  Pb  Pb97  1  0.50604250  -0.00337794  0.25329879  1
  Pb  Pb98  1  0.50333039  -0.01269932  0.49920808  1
  Pb  Pb99  1  0.50754505  -0.00297900  0.75244868  1
  Pb  Pb100  1  0.49629623  0.25341813  0.00159098  1
  Pb  Pb101  1  0.50651687  0.25155002  0.25591839  1
  Pb  Pb102  1  0.50224501  0.25113015  0.49275058  1
  Pb  Pb103  1  0.50127089  0.24311769  0.75375666  1
  Pb  Pb104  1  0.49815070  0.50892645  0.00369129  1
  Pb  Pb105  1  0.49664270  0.49611405  0.24587908  1
  Pb  Pb106  1  0.49740037  0.50911544  0.50103246  1
  Pb  Pb107  1  0.50444629  0.51791159  0.75905559  1
  Pb  Pb108  1  0.50397276  0.74587837  -0.00750624  1
  Pb  Pb109  1  0.50623963  0.75307238  0.24283980  1
  Pb  Pb110  1  0.50200094  0.75028200  0.50434805  1
  Pb  Pb111  1  0.50051367  0.75144718  0.74485357  1
  Pb  Pb112  1  0.74342809  -0.00759402  0.00042341  1
  Pb  Pb113  1  0.75159979  -0.00431138  0.24227425  1
  Pb  Pb114  1  0.74447830  -0.00309846  0.49279820  1
  Pb  Pb115  1  0.74894294  -0.00804771  0.75856947  1
  Pb  Pb116  1  0.75999244  0.24619925  0.00882999  1
  Pb  Pb117  1  0.74614248  0.25744984  0.25753790  1
  Pb  Pb118  1  0.75246411  0.24811642  0.48460730  1
  Pb  Pb119  1  0.74819449  0.24811848  0.74894350  1
  Pb  Pb120  1  0.75587489  0.50958040  0.01025900  1
  Pb  Pb121  1  0.75190791  0.50179993  0.25047703  1
  Pb  Pb122  1  0.75362710  0.50501330  0.49184076  1
  Pb  Pb123  1  0.74842703  0.50449668  0.74840244  1
  Pb  Pb124  1  0.74145240  0.76218097  0.00118144  1
  Pb  Pb125  1  0.74958578  0.74999985  0.23470220  1
  Pb  Pb126  1  0.73619196  0.74898806  0.50645863  1
  Pb  Pb127  1  0.73741166  0.74367902  0.75541695  1
  O  O128  1  0.13111142  -0.00121054  0.15320513  1
  O  O129  1  0.12592371  -0.00709112  0.40963529  1
  O  O130  1  0.12386758  0.00757519  0.66727997  1
  O  O131  1  0.12407812  -0.00089262  0.91375142  1
  O  O132  1  0.12570468  0.25863473  0.16332711  1
  O  O133  1  0.12788095  0.25649672  0.41047121  1
  O  O134  1  0.12445918  0.24966484  0.66805595  1
  O  O135  1  0.12365621  0.26299343  0.91973021  1
  O  O136  1  0.12582463  0.49568363  0.16713960  1
  O  O137  1  0.12714532  0.49515572  0.40904512  1
  O  O138  1  0.12262254  0.49794844  0.66513725  1
  O  O139  1  0.12264556  0.49711499  0.92054089  1
  O  O140  1  0.12687592  0.74321764  0.15468303  1
  O  O141  1  0.12620438  0.75534497  0.41237708  1
  O  O142  1  0.12508723  0.74293241  0.66128171  1
  O  O143  1  0.12205164  0.73685411  0.91715308  1
  O  O144  1  0.37115543  0.00023914  0.15856836  1
  O  O145  1  0.37179790  0.00522728  0.41313608  1
  O  O146  1  0.37154430  0.00976282  0.66380710  1
  O  O147  1  0.36986449  -0.00653576  0.91090936  1
  O  O148  1  0.37715140  0.24207807  0.16214175  1
  O  O149  1  0.37242715  0.24430716  0.41118997  1
  O  O150  1  0.37157394  0.25273745  0.66861025  1
  O  O151  1  0.36951790  0.25940512  0.91469398  1
  O  O152  1  0.37374692  0.50002686  0.16417184  1
  O  O153  1  0.37544613  0.50716485  0.41252306  1
  O  O154  1  0.37277158  0.48727872  0.66675148  1
  O  O155  1  0.37111775  0.49117718  0.91433969  1
  O  O156  1  0.37363020  0.75549435  0.15705427  1
  O  O157  1  0.37311790  0.74304436  0.41575493  1
  O  O158  1  0.36954810  0.74848164  0.66372094  1
  O  O159  1  0.37036271  0.75566254  0.90925898  1
  O  O160  1  0.61855675  0.00654478  0.15990055  1
  O  O161  1  0.62290309  -0.00227354  0.41476152  1
  O  O162  1  0.62595456  0.00617443  0.66723969  1
  O  O163  1  0.62465972  0.00488792  0.91101817  1
  O  O164  1  0.61854119  0.24566512  0.16441978  1
  O  O165  1  0.62258634  0.24661145  0.41168151  1
  O  O166  1  0.62630991  0.25189954  0.66766161  1
  O  O167  1  0.62462784  0.25887313  0.92082937  1
  O  O168  1  0.62360720  0.49314897  0.15767576  1
  O  O169  1  0.62215926  0.50955566  0.40988999  1
  O  O170  1  0.62557355  0.49091298  0.66399604  1
  O  O171  1  0.62515939  0.48661413  0.91691048  1
  O  O172  1  0.62047331  0.75096543  0.15410233  1
  O  O173  1  0.62289734  0.74555863  0.41488667  1
  O  O174  1  0.62776022  0.74941198  0.66725458  1
  O  O175  1  0.62475175  0.75022502  0.90908657  1
  O  O176  1  0.87610232  -0.00153560  0.15677375  1
  O  O177  1  0.87905289  -0.01043323  0.40988274  1
  O  O178  1  0.87877763  0.00105120  0.67078697  1
  O  O179  1  0.87800596  0.01162613  0.91521029  1
  O  O180  1  0.87221535  0.25684719  0.16992525  1
  O  O181  1  0.87760457  0.24974884  0.40279785  1
  O  O182  1  0.87601874  0.24854569  0.66527997  1
  O  O183  1  0.87698587  0.25330963  0.92194764  1
  O  O184  1  0.87090576  0.49279472  0.16682372  1
  O  O185  1  0.87559499  0.50192774  0.40724651  1
  O  O186  1  0.87893295  0.49318881  0.66246745  1
  O  O187  1  0.87716394  0.49699220  0.92138098  1
  O  O188  1  0.87707672  0.74979313  0.15629632  1
  O  O189  1  0.87863476  0.75838673  0.40968335  1
  O  O190  1  0.87836286  0.75695116  0.66527224  1
  O  O191  1  0.88189424  0.73867553  0.91240719  1
  O  O192  1  0.00396117  0.12893397  0.16233532  1
  O  O193  1  0.00292035  0.12287360  0.40857249  1
  O  O194  1  -0.00091993  0.12776070  0.66786907  1
  O  O195  1  -0.00533235  0.13229788  0.92109693  1
  O  O196  1  0.00226044  0.37612946  0.16675709  1
  O  O197  1  0.00747792  0.37564156  0.40495714  1
  O  O198  1  0.00193744  0.37161440  0.66523369  1
  O  O199  1  0.00139450  0.37756747  0.91946958  1
  O  O200  1  0.00767443  0.61873558  0.16279873  1
  O  O201  1  0.00210396  0.62729617  0.41240554  1
  O  O202  1  0.00608572  0.62152170  0.66547195  1
  O  O203  1  0.00142672  0.61629172  0.92071950  1
  O  O204  1  0.00353278  0.87303039  0.14964373  1
  O  O205  1  0.00267916  0.87420175  0.40833341  1
  O  O206  1  -0.00246143  0.87798696  0.67114666  1
  O  O207  1  0.00796145  0.87044522  0.92207982  1
  O  O208  1  0.25820139  0.12694658  0.16076130  1
  O  O209  1  0.25366042  0.12518648  0.41501995  1
  O  O210  1  0.25013189  0.12966950  0.66733052  1
  O  O211  1  0.25135473  0.12794679  0.91903809  1
  O  O212  1  0.24468876  0.37493525  0.16489403  1
  O  O213  1  0.24756976  0.37628430  0.41294152  1
  O  O214  1  0.24867051  0.37219190  0.66623883  1
  O  O215  1  0.24537691  0.37807231  0.91330819  1
  O  O216  1  0.24625405  0.62107654  0.16101815  1
  O  O217  1  0.25419601  0.62435193  0.41193967  1
  O  O218  1  0.24010122  0.61809192  0.66579040  1
  O  O219  1  0.24193379  0.61816093  0.91238473  1
  O  O220  1  0.25438882  0.87342656  0.16046369  1
  O  O221  1  0.24406755  0.87376152  0.41510275  1
  O  O222  1  0.24619160  0.87867401  0.67184272  1
  O  O223  1  0.24956058  0.87259572  0.91515430  1
  O  O224  1  0.49413731  0.12196673  0.16304007  1
  O  O225  1  0.49035403  0.12299650  0.41333374  1
  O  O226  1  0.49660326  0.13083166  0.66396995  1
  O  O227  1  0.49759419  0.13129573  0.91549972  1
  O  O228  1  0.50549994  0.37113910  0.16319219  1
  O  O229  1  0.49718937  0.37619463  0.41617760  1
  O  O230  1  0.49598684  0.36740361  0.65738680  1
  O  O231  1  0.49718589  0.37291762  0.90829241  1
  O  O232  1  0.49971428  0.62291850  0.15933362  1
  O  O233  1  0.49816692  0.62710345  0.41404032  1
  O  O234  1  0.50107058  0.62101767  0.66682481  1
  O  O235  1  0.49728551  0.61924482  0.91147803  1
  O  O236  1  0.49133498  0.87910468  0.15714875  1
  O  O237  1  0.49802475  0.87240295  0.41545574  1
  O  O238  1  0.49651515  0.87892229  0.66394714  1
  O  O239  1  0.49044506  0.87580897  0.90619912  1
  O  O240  1  0.74056023  0.12664251  0.15906994  1
  O  O241  1  0.75245307  0.12007078  0.40642550  1
  O  O242  1  0.75257997  0.12605977  0.66741866  1
  O  O243  1  0.75616238  0.13352654  0.91523618  1
  O  O244  1  0.74048746  0.36925051  0.16527729  1
  O  O245  1  0.74865743  0.37674821  0.41028322  1
  O  O246  1  0.75167702  0.37123895  0.66216989  1
  O  O247  1  0.75245294  0.37298547  0.91640104  1
  O  O248  1  0.74576368  0.62144295  0.15936279  1
  O  O249  1  0.74421544  0.62775537  0.40600898  1
  O  O250  1  0.75415655  0.62269432  0.66728083  1
  O  O251  1  0.75962434  0.61800793  0.91447634  1
  O  O252  1  0.74928263  0.87770907  0.15501175  1
  O  O253  1  0.75553845  0.87435253  0.40523603  1
  O  O254  1  0.76001654  0.87946890  0.66891985  1
  O  O255  1  0.75080062  0.87649963  0.91097925  1
  O  O256  1  0.12021799  0.12766010  0.03256506  1
  O  O257  1  0.13187478  0.13079152  0.28050230  1
  O  O258  1  0.12385044  0.12730620  0.54901392  1
  O  O259  1  0.12383109  0.13662383  0.79562460  1
  O  O260  1  0.12777331  0.37916450  0.05058796  1
  O  O261  1  0.13195935  0.37551248  0.29302592  1
  O  O262  1  0.12647888  0.37441293  0.54736096  1
  O  O263  1  0.12235209  0.37888604  0.80229042  1
  O  O264  1  0.12597659  0.61751029  0.04907861  1
  O  O265  1  0.12301309  0.62435735  0.28178544  1
  O  O266  1  0.12295355  0.62452499  0.54727739  1
  O  O267  1  0.11882964  0.62218666  0.80150452  1
  O  O268  1  0.13504184  0.86617070  0.02200156  1
  O  O269  1  0.12884450  0.87075712  0.29541765  1
  O  O270  1  0.12669282  0.87925230  0.53811231  1
  O  O271  1  0.12165899  0.86926904  0.81176247  1
  O  O272  1  0.37757594  0.12688601  0.04479165  1
  O  O273  1  0.37107258  0.12237351  0.29563966  1
  O  O274  1  0.37214576  0.12998760  0.55439594  1
  O  O275  1  0.37231372  0.13059712  0.78418277  1
  O  O276  1  0.37007587  0.37260645  0.04058439  1
  O  O277  1  0.37592431  0.37769298  0.28097157  1
  O  O278  1  0.37131188  0.37196057  0.54938768  1
  O  O279  1  0.37608464  0.37649582  0.79769992  1
  O  O280  1  0.37376886  0.61840901  0.02893950  1
  O  O281  1  0.37500167  0.62937102  0.29783754  1
  O  O282  1  0.37338247  0.61327637  0.54096699  1
  O  O283  1  0.37129768  0.61456770  0.78624815  1
  O  O284  1  0.37251846  0.87543558  0.04357509  1
  O  O285  1  0.36575050  0.87146784  0.28738482  1
  O  O286  1  0.36223971  0.87728228  0.53513047  1
  O  O287  1  0.36696359  0.87704039  0.79416273  1
  O  O288  1  0.61915628  0.12867520  0.04922406  1
  O  O289  1  0.61349073  0.12090101  0.28071746  1
  O  O290  1  0.62730014  0.12568580  0.55137584  1
  O  O291  1  0.62335275  0.13529165  0.78498890  1
  O  O292  1  0.62510038  0.37187399  0.04847106  1
  O  O293  1  0.61986633  0.36912130  0.28362679  1
  O  O294  1  0.62726156  0.37342940  0.54405586  1
  O  O295  1  0.63388086  0.37076797  0.80044350  1
  O  O296  1  0.62305763  0.61830218  0.02374291  1
  O  O297  1  0.61907674  0.63046841  0.29641138  1
  O  O298  1  0.62722808  0.63052252  0.53587056  1
  O  O299  1  0.63216171  0.61342707  0.79295942  1
  O  O300  1  0.62551609  0.88049335  0.02940021  1
  O  O301  1  0.61612565  0.87640386  0.28082965  1
  O  O302  1  0.63185961  0.87206358  0.54080078  1
  O  O303  1  0.62660526  0.88220991  0.78142169  1
  O  O304  1  0.87974282  0.13588024  0.04352312  1
  O  O305  1  0.87887415  0.11914984  0.27336668  1
  O  O306  1  0.87581958  0.12110633  0.54780557  1
  O  O307  1  0.87863082  0.13036838  0.80306125  1
  O  O308  1  0.87469798  0.37293550  0.06024786  1
  O  O309  1  0.86430043  0.37795489  0.27461309  1
  O  O310  1  0.87708105  0.37211009  0.54468350  1
  O  O311  1  0.87859310  0.37533449  0.80037771  1
  O  O312  1  0.87888228  0.61291983  0.03849682  1
  O  O313  1  0.88074248  0.62686518  0.27875626  1
  O  O314  1  0.88005156  0.62571915  0.53508889  1
  O  O315  1  0.88036726  0.61768311  0.80309971  1
  O  O316  1  0.87141713  0.87149817  0.02103542  1
  O  O317  1  0.87441239  0.87419956  0.29086182  1
  O  O318  1  0.87646095  0.87765175  0.55304336  1
  O  O319  1  0.88995811  0.87861176  0.79834867  1
