# generated using pymatgen
data_VFe(PbO3)2
_symmetry_space_group_name_H-M   'P 1'
_cell_length_a   15.39983312
_cell_length_b   15.39021534
_cell_length_c   18.44060973
_cell_angle_alpha   90.01440557
_cell_angle_beta   89.98612128
_cell_angle_gamma   90.00691311
_symmetry_Int_Tables_number   1
_chemical_formula_structural   VFe(PbO3)2
_chemical_formula_sum   'V32 Fe32 Pb64 O192'
_cell_volume   4370.54864241
_cell_formula_units_Z   32
loop_
 _symmetry_equiv_pos_site_id
 _symmetry_equiv_pos_as_xyz
  1  'x, y, z'
loop_
 _atom_site_type_symbol
 _atom_site_label
 _atom_site_symmetry_multiplicity
 _atom_site_fract_x
 _atom_site_fract_y
 _atom_site_fract_z
 _atom_site_occupancy
  V  V0  1  0.37680876  0.62375263  0.89310622  1
  V  V1  1  0.62728839  0.87665362  0.63785288  1
  V  V2  1  0.87358099  0.37220566  0.13747459  1
  V  V3  1  0.37283382  0.12482301  0.38214383  1
  V  V4  1  0.62518474  0.12440869  0.64087698  1
  V  V5  1  0.12849395  0.37947554  0.89714261  1
  V  V6  1  0.62345619  0.87357329  0.89779412  1
  V  V7  1  0.36569616  0.37662540  0.15060223  1
  V  V8  1  0.87635611  0.37194647  0.38295115  1
  V  V9  1  0.37601144  0.37259334  0.63497419  1
  V  V10  1  0.62456779  0.62346637  0.89220598  1
  V  V11  1  0.87807587  0.12513205  0.38352709  1
  V  V12  1  0.87335861  0.37756822  0.89565879  1
  V  V13  1  0.37216496  0.87668143  0.63961766  1
  V  V14  1  0.87277886  0.62389921  0.14960221  1
  V  V15  1  0.87449981  0.37251606  0.63936792  1
  V  V16  1  0.87495904  0.87251683  0.14224905  1
  V  V17  1  0.87357014  0.87014093  0.89129217  1
  V  V18  1  0.87559034  0.62573649  0.63630625  1
  V  V19  1  0.12285478  0.62563138  0.14580680  1
  V  V20  1  0.62526089  0.37951232  0.14556220  1
  V  V21  1  0.37531809  0.87415140  0.14042095  1
  V  V22  1  0.12449313  0.87246925  0.13582167  1
  V  V23  1  0.87289896  0.62457575  0.89334036  1
  V  V24  1  0.12812478  0.62406196  0.63692684  1
  V  V25  1  0.87502715  0.12474697  0.64457563  1
  V  V26  1  0.61780420  0.62740899  0.15921013  1
  V  V27  1  0.12546976  0.62477750  0.89099441  1
  V  V28  1  0.37712761  0.37584372  0.89331575  1
  V  V29  1  0.12691516  0.87927034  0.38752904  1
  V  V30  1  0.62277590  0.37861546  0.89368972  1
  V  V31  1  0.37714474  0.12281592  0.89416604  1
  Fe  Fe32  1  0.12776327  0.12756748  0.63737255  1
  Fe  Fe33  1  0.37180775  0.87948215  0.37977628  1
  Fe  Fe34  1  0.12946093  0.87015891  0.88397837  1
  Fe  Fe35  1  0.87279763  0.87898663  0.63703529  1
  Fe  Fe36  1  0.37695801  0.12461149  0.63555466  1
  Fe  Fe37  1  0.87580500  0.12263800  0.12544943  1
  Fe  Fe38  1  0.87833915  0.87939272  0.37853118  1
  Fe  Fe39  1  0.12330904  0.37450259  0.63589951  1
  Fe  Fe40  1  0.62712774  0.37288966  0.63072645  1
  Fe  Fe41  1  0.37358765  0.36989795  0.37243141  1
  Fe  Fe42  1  0.12372329  0.37095804  0.37573383  1
  Fe  Fe43  1  0.62490235  0.12571744  0.13476235  1
  Fe  Fe44  1  0.37146565  0.62653212  0.37949471  1
  Fe  Fe45  1  0.12606925  0.12548764  0.89540033  1
  Fe  Fe46  1  0.37460842  0.12658071  0.13294518  1
  Fe  Fe47  1  0.62774949  0.62568385  0.37703716  1
  Fe  Fe48  1  0.37631715  0.62555388  0.62674555  1
  Fe  Fe49  1  0.87304120  0.12702037  0.90000902  1
  Fe  Fe50  1  0.37180377  0.62374243  0.15121761  1
  Fe  Fe51  1  0.11879329  0.37642836  0.14256752  1
  Fe  Fe52  1  0.62516119  0.62541988  0.62743294  1
  Fe  Fe53  1  0.12490417  0.12269741  0.12754834  1
  Fe  Fe54  1  0.12116798  0.62684902  0.38140794  1
  Fe  Fe55  1  0.12246855  0.12374446  0.38543424  1
  Fe  Fe56  1  0.62341996  0.12861600  0.89650736  1
  Fe  Fe57  1  0.87925294  0.62597865  0.38084104  1
  Fe  Fe58  1  0.62636205  0.36988122  0.38294540  1
  Fe  Fe59  1  0.62780415  0.12407430  0.37725810  1
  Fe  Fe60  1  0.37816165  0.87091923  0.88713060  1
  Fe  Fe61  1  0.62456190  0.87185601  0.14649088  1
  Fe  Fe62  1  0.62442663  0.88022079  0.37273749  1
  Fe  Fe63  1  0.12147096  0.87593748  0.64285608  1
  Pb  Pb64  1  0.00301274  0.00735858  -0.00413285  1
  Pb  Pb65  1  -0.00218791  -0.00054082  0.24477888  1
  Pb  Pb66  1  0.00331735  -0.00934857  0.50618225  1
  Pb  Pb67  1  0.00603382  0.00128550  0.75445314  1
  Pb  Pb68  1  0.01103758  0.25185610  0.00521330  1
  Pb  Pb69  1  0.00986414  0.24034464  0.24514278  1
  Pb  Pb70  1  0.00988986  0.24883958  0.49909005  1
  Pb  Pb71  1  0.00378482  0.24054563  0.75667234  1
  Pb  Pb72  1  0.00494957  0.49626407  0.00819757  1
  Pb  Pb73  1  -0.00019459  0.50623572  0.25570746  1
  Pb  Pb74  1  0.00633766  0.49574702  0.49080328  1
  Pb  Pb75  1  -0.00304547  0.49899401  0.74864033  1
  Pb  Pb76  1  -0.00116401  0.74743137  0.00199537  1
  Pb  Pb77  1  -0.00439819  0.75034744  0.25719877  1
  Pb  Pb78  1  -0.00149657  0.75978002  0.49729636  1
  Pb  Pb79  1  0.00229961  0.75423913  0.75018178  1
  Pb  Pb80  1  0.24886024  0.00010467  -0.00367519  1
  Pb  Pb81  1  0.24944838  0.00316230  0.24422577  1
  Pb  Pb82  1  0.24824451  0.01147750  0.50261248  1
  Pb  Pb83  1  0.24025530  0.00738248  0.75402443  1
  Pb  Pb84  1  0.25107590  0.24792334  0.00586978  1
  Pb  Pb85  1  0.23608995  0.24408038  0.24834563  1
  Pb  Pb86  1  0.24266515  0.24987060  0.49454901  1
  Pb  Pb87  1  0.24397463  0.24486710  0.75115794  1
  Pb  Pb88  1  0.25596729  0.50378451  0.01075746  1
  Pb  Pb89  1  0.24098914  0.50553818  0.25825849  1
  Pb  Pb90  1  0.25218883  0.49609299  0.48226078  1
  Pb  Pb91  1  0.25372369  0.49936912  0.74335144  1
  Pb  Pb92  1  0.25731851  0.74658476  0.00193451  1
  Pb  Pb93  1  0.25017488  0.75079115  0.25536387  1
  Pb  Pb94  1  0.25474985  0.74607582  0.49313801  1
  Pb  Pb95  1  0.25492359  0.76099771  0.75327484  1
  Pb  Pb96  1  0.50246529  0.00749851  0.00970912  1
  Pb  Pb97  1  0.50697126  0.00273109  0.24476853  1
  Pb  Pb98  1  0.49753984  0.00317084  0.48909945  1
  Pb  Pb99  1  0.50168446  -0.00139195  0.75249111  1
  Pb  Pb100  1  0.49742230  0.24675814  0.00849824  1
  Pb  Pb101  1  0.50131583  0.25166098  0.24812520  1
  Pb  Pb102  1  0.50139455  0.25238261  0.49031165  1
  Pb  Pb103  1  0.50538236  0.24746980  0.74894637  1
  Pb  Pb104  1  0.49106586  0.50644103  0.01220736  1
  Pb  Pb105  1  0.49468101  0.49187977  0.26336886  1
  Pb  Pb106  1  0.49961130  0.50376925  0.48338956  1
  Pb  Pb107  1  0.50230801  0.50315336  0.73865488  1
  Pb  Pb108  1  0.50519059  0.75066643  0.01089721  1
  Pb  Pb109  1  0.48344113  0.75553256  0.26185619  1
  Pb  Pb110  1  0.50137763  0.74635031  0.48297081  1
  Pb  Pb111  1  0.49679990  0.75125863  0.74542141  1
  Pb  Pb112  1  0.74584746  0.00386135  0.00684962  1
  Pb  Pb113  1  0.74292710  0.00337195  0.24461815  1
  Pb  Pb114  1  0.75256485  -0.00545585  0.48987152  1
  Pb  Pb115  1  0.75063593  0.01400752  0.76310942  1
  Pb  Pb116  1  0.74784475  0.24278665  0.00524684  1
  Pb  Pb117  1  0.74458720  0.24512066  0.24713281  1
  Pb  Pb118  1  0.74669703  0.25207437  0.49592910  1
  Pb  Pb119  1  0.75012452  0.24161521  0.75949587  1
  Pb  Pb120  1  0.74691403  0.50233599  0.00712998  1
  Pb  Pb121  1  0.74589581  0.49897353  0.26034435  1
  Pb  Pb122  1  0.73744276  0.50426204  0.49281022  1
  Pb  Pb123  1  0.74638612  0.49893573  0.74353945  1
  Pb  Pb124  1  0.74109259  0.75321804  0.01232201  1
  Pb  Pb125  1  0.74874742  0.74925342  0.25963155  1
  Pb  Pb126  1  0.74996162  0.75188088  0.48289041  1
  Pb  Pb127  1  0.74786587  0.75181467  0.74584450  1
  O  O128  1  0.12507002  -0.00923797  0.15527464  1
  O  O129  1  0.12373721  -0.00257481  0.41338444  1
  O  O130  1  0.12403555  0.00247438  0.66963880  1
  O  O131  1  0.12680849  -0.00522861  0.91113041  1
  O  O132  1  0.12233652  0.24914022  0.15700675  1
  O  O133  1  0.12373716  0.24831821  0.41248430  1
  O  O134  1  0.12305187  0.25231992  0.67097430  1
  O  O135  1  0.12502867  0.25861417  0.91785586  1
  O  O136  1  0.12146468  0.50690338  0.16352602  1
  O  O137  1  0.12073496  0.49629173  0.40476180  1
  O  O138  1  0.12235530  0.50516892  0.66643871  1
  O  O139  1  0.12399337  0.50347431  0.92435525  1
  O  O140  1  0.12326143  0.75191715  0.16547195  1
  O  O141  1  0.12339709  0.75924369  0.40852828  1
  O  O142  1  0.12067459  0.73873998  0.66379986  1
  O  O143  1  0.12529629  0.74362161  0.91780998  1
  O  O144  1  0.37017584  -0.00709338  0.15885860  1
  O  O145  1  0.37285290  0.00622305  0.41020215  1
  O  O146  1  0.37920148  -0.00828339  0.66712755  1
  O  O147  1  0.37845169  0.00440811  0.91095557  1
  O  O148  1  0.38018666  0.25787677  0.15832822  1
  O  O149  1  0.37283054  0.24137413  0.40535267  1
  O  O150  1  0.37798019  0.25699124  0.66246794  1
  O  O151  1  0.37668431  0.25349124  0.91933312  1
  O  O152  1  0.37707886  0.49448521  0.17397385  1
  O  O153  1  0.37465034  0.49803831  0.39616522  1
  O  O154  1  0.37501291  0.49531553  0.66021155  1
  O  O155  1  0.37569217  0.50054518  0.92490128  1
  O  O156  1  0.37009265  0.75552484  0.16474027  1
  O  O157  1  0.37113923  0.75386225  0.40815630  1
  O  O158  1  0.37869136  0.75553072  0.66087042  1
  O  O159  1  0.37815120  0.74259474  0.91950943  1
  O  O160  1  0.62562218  -0.00133366  0.15633861  1
  O  O161  1  0.62589047  0.00338354  0.40945711  1
  O  O162  1  0.62578021  -0.00356115  0.66870474  1
  O  O163  1  0.62409801  -0.00945989  0.91567983  1
  O  O164  1  0.63092068  0.25882137  0.15836595  1
  O  O165  1  0.62830907  0.24465739  0.41298983  1
  O  O166  1  0.62475659  0.24656383  0.66552950  1
  O  O167  1  0.62456440  0.26007961  0.91954104  1
  O  O168  1  0.63324315  0.49935000  0.17182572  1
  O  O169  1  0.62766121  0.49745729  0.40269335  1
  O  O170  1  0.62784944  0.49919633  0.66128886  1
  O  O171  1  0.62592492  0.50144426  0.92309032  1
  O  O172  1  0.62714981  0.74353595  0.17142854  1
  O  O173  1  0.62864693  0.75333902  0.39837356  1
  O  O174  1  0.62678044  0.75650927  0.65956114  1
  O  O175  1  0.62400045  0.74617591  0.92365572  1
  O  O176  1  0.87988960  -0.00865238  0.15560821  1
  O  O177  1  0.87878565  0.00857522  0.40839045  1
  O  O178  1  0.87214817  0.00797589  0.67008570  1
  O  O179  1  0.86860410  -0.01541046  0.91345590  1
  O  O180  1  0.87231515  0.25650317  0.14967458  1
  O  O181  1  0.87521115  0.24774614  0.41177053  1
  O  O182  1  0.87303603  0.24599927  0.66900461  1
  O  O183  1  0.87248199  0.26280209  0.91727168  1
  O  O184  1  0.87543408  0.50531314  0.16681467  1
  O  O185  1  0.87892911  0.48923692  0.40288882  1
  O  O186  1  0.87437018  0.50193300  0.66504813  1
  O  O187  1  0.87337066  0.50192923  0.92240591  1
  O  O188  1  0.88268729  0.75047257  0.16811072  1
  O  O189  1  0.87761699  0.75353711  0.40631043  1
  O  O190  1  0.87493221  0.74281895  0.66117560  1
  O  O191  1  0.87019352  0.74889266  0.92241564  1
  O  O192  1  -0.00101962  0.12269170  0.15365227  1
  O  O193  1  -0.00685545  0.12839775  0.41110605  1
  O  O194  1  -0.00682195  0.12644070  0.66640477  1
  O  O195  1  -0.00135544  0.12426284  0.91253157  1
  O  O196  1  -0.01252587  0.38127745  0.16225807  1
  O  O197  1  -0.00646891  0.36760675  0.40875786  1
  O  O198  1  -0.00619311  0.37535417  0.67102824  1
  O  O199  1  -0.00477966  0.38152778  0.91795906  1
  O  O200  1  0.00182092  0.62706003  0.16689273  1
  O  O201  1  0.00001508  0.62481296  0.41565193  1
  O  O202  1  -0.00404096  0.62171316  0.66392350  1
  O  O203  1  -0.00212337  0.62531029  0.91744351  1
  O  O204  1  0.00582090  0.87207470  0.16236004  1
  O  O205  1  0.00581600  0.87957391  0.41348893  1
  O  O206  1  -0.00554497  0.87533272  0.67369060  1
  O  O207  1  -0.00916726  0.86637020  0.90743710  1
  O  O208  1  0.24944118  0.12495485  0.15816090  1
  O  O209  1  0.25376706  0.12268300  0.40908500  1
  O  O210  1  0.25446226  0.12580407  0.66945359  1
  O  O211  1  0.25887078  0.12924429  0.91543033  1
  O  O212  1  0.25034362  0.37840437  0.15958234  1
  O  O213  1  0.25016180  0.37129814  0.40040740  1
  O  O214  1  0.25601729  0.37665345  0.66227301  1
  O  O215  1  0.25266601  0.37902467  0.92117900  1
  O  O216  1  0.24078301  0.62555732  0.16597238  1
  O  O217  1  0.24537916  0.62604028  0.40894663  1
  O  O218  1  0.24534337  0.62285887  0.65741706  1
  O  O219  1  0.25093801  0.62197050  0.91880960  1
  O  O220  1  0.24427962  0.87202155  0.15975315  1
  O  O221  1  0.24323681  0.87952391  0.41228604  1
  O  O222  1  0.25517872  0.87156109  0.66022732  1
  O  O223  1  0.25412091  0.86982179  0.91589785  1
  O  O224  1  0.49897381  0.12610776  0.16077503  1
  O  O225  1  0.49389520  0.12465942  0.40257473  1
  O  O226  1  0.50308679  0.12282287  0.66958724  1
  O  O227  1  0.49540334  0.12814353  0.91825574  1
  O  O228  1  0.51027104  0.38054318  0.16339442  1
  O  O229  1  0.49812130  0.36860099  0.40513118  1
  O  O230  1  0.49562842  0.37584899  0.66114595  1
  O  O231  1  0.49954516  0.37977845  0.92197889  1
  O  O232  1  0.50293612  0.62230529  0.17107912  1
  O  O233  1  0.50061616  0.62678608  0.39766880  1
  O  O234  1  0.50015044  0.62545959  0.65928107  1
  O  O235  1  0.50214230  0.62197638  0.92014888  1
  O  O236  1  0.49115505  0.87207208  0.16109033  1
  O  O237  1  0.49867857  0.87848036  0.40417448  1
  O  O238  1  0.50607852  0.87528223  0.66409074  1
  O  O239  1  0.50546824  0.86905162  0.91951223  1
  O  O240  1  0.75290756  0.12399900  0.15427502  1
  O  O241  1  0.75993644  0.12578224  0.40823423  1
  O  O242  1  0.74984106  0.12555451  0.67157356  1
  O  O243  1  0.74673140  0.12453765  0.92161958  1
  O  O244  1  0.75631429  0.38102880  0.16643914  1
  O  O245  1  0.75942931  0.36978935  0.40999628  1
  O  O246  1  0.75508449  0.37388264  0.66652311  1
  O  O247  1  0.75156364  0.38193651  0.91947719  1
  O  O248  1  0.75841004  0.62972507  0.16754910  1
  O  O249  1  0.75451849  0.62339253  0.40616241  1
  O  O250  1  0.75630104  0.62433723  0.66094111  1
  O  O251  1  0.74808645  0.62441345  0.92141600  1
  O  O252  1  0.75959828  0.86725709  0.15878690  1
  O  O253  1  0.75178098  0.88150760  0.40359387  1
  O  O254  1  0.74473168  0.87531355  0.66571586  1
  O  O255  1  0.74609448  0.86718127  0.92247232  1
  O  O256  1  0.12701482  0.12476662  0.02449008  1
  O  O257  1  0.12323544  0.13052288  0.28378581  1
  O  O258  1  0.13129186  0.12972506  0.53640214  1
  O  O259  1  0.13071539  0.13074639  0.79322623  1
  O  O260  1  0.11378627  0.37826041  0.04015383  1
  O  O261  1  0.12072286  0.36796750  0.27292151  1
  O  O262  1  0.12010287  0.37026765  0.53661642  1
  O  O263  1  0.12734484  0.38378794  0.80582593  1
  O  O264  1  0.12131530  0.62956925  0.05380494  1
  O  O265  1  0.12198731  0.62298203  0.28025405  1
  O  O266  1  0.12260020  0.62229964  0.54615083  1
  O  O267  1  0.12706526  0.62208752  0.79988339  1
  O  O268  1  0.12255192  0.86702984  0.04441183  1
  O  O269  1  0.12537960  0.88250791  0.29567675  1
  O  O270  1  0.11137709  0.87789843  0.54307176  1
  O  O271  1  0.12967651  0.86489464  0.78233626  1
  O  O272  1  0.37908447  0.12640944  0.03214312  1
  O  O273  1  0.36964088  0.12178813  0.29028487  1
  O  O274  1  0.37425836  0.11910652  0.53686113  1
  O  O275  1  0.37984186  0.12867539  0.80267200  1
  O  O276  1  0.37766067  0.38550868  0.05770787  1
  O  O277  1  0.38396161  0.36724092  0.27005488  1
  O  O278  1  0.37660738  0.37234796  0.54398524  1
  O  O279  1  0.37755471  0.37824964  0.80242403  1
  O  O280  1  0.37374250  0.61631008  0.04935670  1
  O  O281  1  0.36660857  0.63596642  0.27562310  1
  O  O282  1  0.37466716  0.62686154  0.52736459  1
  O  O283  1  0.37579848  0.62205444  0.80166908  1
  O  O284  1  0.37406873  0.87098259  0.04822319  1
  O  O285  1  0.36716344  0.87338477  0.27926567  1
  O  O286  1  0.37636368  0.87908052  0.54876205  1
  O  O287  1  0.37886472  0.86328986  0.78708560  1
  O  O288  1  0.61799736  0.12541931  0.03088298  1
  O  O289  1  0.63341584  0.12423587  0.27568178  1
  O  O290  1  0.62708529  0.12216645  0.54987630  1
  O  O291  1  0.62810682  0.12701101  0.79494258  1
  O  O292  1  0.63112728  0.38535775  0.05388287  1
  O  O293  1  0.63206071  0.36712453  0.28117969  1
  O  O294  1  0.62996950  0.37104914  0.53099375  1
  O  O295  1  0.62341521  0.37932391  0.80238260  1
  O  O296  1  0.62663847  0.62281604  0.06630926  1
  O  O297  1  0.63802038  0.62161180  0.27323054  1
  O  O298  1  0.62866768  0.62165356  0.52777924  1
  O  O299  1  0.62579306  0.62538787  0.80096001  1
  O  O300  1  0.62306868  0.86055987  0.04386978  1
  O  O301  1  0.62732320  0.88334257  0.26988861  1
  O  O302  1  0.62798691  0.88125075  0.54723316  1
  O  O303  1  0.62696115  0.86757938  0.80658403  1
  O  O304  1  0.87263440  0.11977756  0.02352245  1
  O  O305  1  0.87980273  0.12561576  0.29142104  1
  O  O306  1  0.87191783  0.12447420  0.55402625  1
  O  O307  1  0.86206313  0.12830046  0.79712686  1
  O  O308  1  0.87093789  0.38376573  0.04595711  1
  O  O309  1  0.87572706  0.36604620  0.29171357  1
  O  O310  1  0.87659127  0.37215048  0.54845291  1
  O  O311  1  0.87311395  0.38119020  0.80464282  1
  O  O312  1  0.87696034  0.62707722  0.05735306  1
  O  O313  1  0.88544518  0.62770027  0.27911142  1
  O  O314  1  0.87696806  0.62228129  0.54580211  1
  O  O315  1  0.87160862  0.62559075  0.80228179  1
  O  O316  1  0.88116503  0.86594606  0.05057003  1
  O  O317  1  0.88720992  0.88072038  0.27791345  1
  O  O318  1  0.88015136  0.88330800  0.53746341  1
  O  O319  1  0.86394549  0.86441338  0.80007034  1
