# generated using pymatgen
data_VFe(PbO3)2
_symmetry_space_group_name_H-M   'P 1'
_cell_length_a   15.37627378
_cell_length_b   15.37738745
_cell_length_c   18.53922083
_cell_angle_alpha   90.01158390
_cell_angle_beta   90.03607690
_cell_angle_gamma   90.00364961
_symmetry_Int_Tables_number   1
_chemical_formula_structural   VFe(PbO3)2
_chemical_formula_sum   'V32 Fe32 Pb64 O192'
_cell_volume   4383.54068731
_cell_formula_units_Z   32
loop_
 _symmetry_equiv_pos_site_id
 _symmetry_equiv_pos_as_xyz
  1  'x, y, z'
loop_
 _atom_site_type_symbol
 _atom_site_label
 _atom_site_symmetry_multiplicity
 _atom_site_fract_x
 _atom_site_fract_y
 _atom_site_fract_z
 _atom_site_occupancy
  V  V0  1  0.87613944  0.62259530  0.89560864  1
  V  V1  1  0.12424586  0.37678417  0.89092745  1
  V  V2  1  0.37742163  0.36982404  0.13991934  1
  V  V3  1  0.62699668  0.12376899  0.64168479  1
  V  V4  1  0.62585461  0.12752757  0.14178434  1
  V  V5  1  0.12227901  0.87341195  0.39196641  1
  V  V6  1  0.87357376  0.87343800  0.64138997  1
  V  V7  1  0.12732058  0.62506227  0.38941607  1
  V  V8  1  0.37448464  0.87539569  0.13906845  1
  V  V9  1  0.13016845  0.37558327  0.63600827  1
  V  V10  1  0.37580059  0.62106588  0.88905030  1
  V  V11  1  0.87949803  0.37463450  0.63811669  1
  V  V12  1  0.12687056  0.12427382  0.38976808  1
  V  V13  1  0.62569334  0.87349385  0.64251808  1
  V  V14  1  0.37550771  0.12651960  0.63868488  1
  V  V15  1  0.62618840  0.62246437  0.89684358  1
  V  V16  1  0.37479199  0.12485577  0.88496165  1
  V  V17  1  0.62847624  0.37681140  0.38525219  1
  V  V18  1  0.62296113  0.62830870  0.38503041  1
  V  V19  1  0.87727482  0.12354529  0.13899440  1
  V  V20  1  0.37312181  0.62258802  0.13975115  1
  V  V21  1  0.87418561  0.12737172  0.88754701  1
  V  V22  1  0.37615460  0.62229105  0.63968348  1
  V  V23  1  0.87653769  0.87502169  0.38757500  1
  V  V24  1  0.37421237  0.37547673  0.89018669  1
  V  V25  1  0.62681151  0.37466179  0.63800230  1
  V  V26  1  0.12381955  0.87741685  0.13530966  1
  V  V27  1  0.62603183  0.62631467  0.63843226  1
  V  V28  1  0.87365205  0.37486320  0.14280877  1
  V  V29  1  0.37547776  0.12255541  0.13944136  1
  V  V30  1  0.87620402  0.37461481  0.89289711  1
  V  V31  1  0.37313796  0.37591564  0.39158871  1
  Fe  Fe32  1  0.62265091  0.87630525  0.13780597  1
  Fe  Fe33  1  0.12375210  0.87426590  0.63886381  1
  Fe  Fe34  1  0.12254108  0.12678431  0.63690296  1
  Fe  Fe35  1  0.62305828  0.87631929  0.88804343  1
  Fe  Fe36  1  0.62321648  0.62473418  0.13257418  1
  Fe  Fe37  1  0.12119699  0.62275166  0.63586175  1
  Fe  Fe38  1  0.87702826  0.12317282  0.38707168  1
  Fe  Fe39  1  0.12494552  0.87442376  0.87865381  1
  Fe  Fe40  1  0.37523386  0.62661238  0.38474544  1
  Fe  Fe41  1  0.12587323  0.37289797  0.14603784  1
  Fe  Fe42  1  0.87139594  0.12502122  0.63504705  1
  Fe  Fe43  1  0.12632242  0.37528458  0.37850433  1
  Fe  Fe44  1  0.37510996  0.12242442  0.38523496  1
  Fe  Fe45  1  0.37551703  0.87283616  0.87580542  1
  Fe  Fe46  1  0.86884838  0.62437590  0.63630877  1
  Fe  Fe47  1  0.62377030  0.37365883  0.13859494  1
  Fe  Fe48  1  0.62600255  0.37571546  0.89055488  1
  Fe  Fe49  1  0.87511971  0.87899305  0.12663773  1
  Fe  Fe50  1  0.87636193  0.62804471  0.13148192  1
  Fe  Fe51  1  0.87713455  0.62619142  0.38308102  1
  Fe  Fe52  1  0.37723017  0.37480376  0.63449012  1
  Fe  Fe53  1  0.37408100  0.87312064  0.38643200  1
  Fe  Fe54  1  0.12874716  0.12267800  0.13314674  1
  Fe  Fe55  1  0.12592014  0.62172061  0.88914564  1
  Fe  Fe56  1  0.62673518  0.87498184  0.37985550  1
  Fe  Fe57  1  0.87994505  0.37505194  0.37946794  1
  Fe  Fe58  1  0.62269523  0.12382141  0.38516902  1
  Fe  Fe59  1  0.12733111  0.62749921  0.13137181  1
  Fe  Fe60  1  0.87352226  0.87554501  0.89202272  1
  Fe  Fe61  1  0.12430236  0.12938262  0.88712760  1
  Fe  Fe62  1  0.37670773  0.87499186  0.64641379  1
  Fe  Fe63  1  0.62547015  0.12867626  0.88341040  1
  Pb  Pb64  1  0.00251142  -0.00108550  -0.00772227  1
  Pb  Pb65  1  -0.00425962  0.00479904  0.24854639  1
  Pb  Pb66  1  0.00962700  0.00086092  0.50625523  1
  Pb  Pb67  1  0.00222006  -0.00297824  0.74842934  1
  Pb  Pb68  1  0.00897128  0.25237486  0.00632291  1
  Pb  Pb69  1  -0.00324470  0.25087905  0.25264574  1
  Pb  Pb70  1  -0.00075199  0.24636672  0.49558818  1
  Pb  Pb71  1  0.00172343  0.24171602  0.74967442  1
  Pb  Pb72  1  0.00093409  0.50550819  0.00859047  1
  Pb  Pb73  1  -0.00225546  0.50377783  0.24640595  1
  Pb  Pb74  1  -0.00013601  0.50443222  0.49438772  1
  Pb  Pb75  1  0.00139082  0.50838359  0.75047909  1
  Pb  Pb76  1  -0.00024221  0.75073205  -0.00430097  1
  Pb  Pb77  1  -0.00746408  0.74395965  0.24322224  1
  Pb  Pb78  1  0.00889274  0.74595924  0.50523519  1
  Pb  Pb79  1  0.00449962  0.74913491  0.75000401  1
  Pb  Pb80  1  0.24538820  0.00127437  -0.00997267  1
  Pb  Pb81  1  0.25947141  -0.00360543  0.25178194  1
  Pb  Pb82  1  0.24860959  -0.00694578  0.50350142  1
  Pb  Pb83  1  0.24075771  -0.00303470  0.74742647  1
  Pb  Pb84  1  0.24221576  0.25201378  0.00572469  1
  Pb  Pb85  1  0.24521762  0.24845529  0.25018325  1
  Pb  Pb86  1  0.24630548  0.24554630  0.49943348  1
  Pb  Pb87  1  0.24773704  0.24410151  0.75098872  1
  Pb  Pb88  1  0.23972001  0.49619126  0.00662817  1
  Pb  Pb89  1  0.24387420  0.50001783  0.24925262  1
  Pb  Pb90  1  0.24858986  0.50175626  0.49929963  1
  Pb  Pb91  1  0.24591635  0.50736028  0.75126148  1
  Pb  Pb92  1  0.24532790  0.74967141  -0.00905776  1
  Pb  Pb93  1  0.25800292  0.75313826  0.25292138  1
  Pb  Pb94  1  0.25147301  0.75783036  0.50582225  1
  Pb  Pb95  1  0.24283090  0.75605594  0.74761991  1
  Pb  Pb96  1  0.50589361  -0.00679896  -0.00391590  1
  Pb  Pb97  1  0.50427277  0.00163982  0.25603857  1
  Pb  Pb98  1  0.49736846  -0.00449081  0.49363913  1
  Pb  Pb99  1  0.50543840  -0.00019572  0.75220287  1
  Pb  Pb100  1  0.50346649  0.25429759  -0.00030570  1
  Pb  Pb101  1  0.49931781  0.23700979  0.25706618  1
  Pb  Pb102  1  0.49735480  0.25195538  0.49750914  1
  Pb  Pb103  1  0.50732194  0.24940386  0.75145155  1
  Pb  Pb104  1  0.50689502  0.49905399  0.00553986  1
  Pb  Pb105  1  0.49917387  0.50515813  0.24899857  1
  Pb  Pb106  1  0.49698017  0.49604699  0.49957201  1
  Pb  Pb107  1  0.50574457  0.49520301  0.75001061  1
  Pb  Pb108  1  0.50565613  0.75167364  0.00090868  1
  Pb  Pb109  1  0.49506548  0.75408208  0.25021641  1
  Pb  Pb110  1  0.49050624  0.75949581  0.50078194  1
  Pb  Pb111  1  0.50082312  0.75490244  0.75406207  1
  Pb  Pb112  1  0.74502445  -0.00813965  0.00077062  1
  Pb  Pb113  1  0.74211571  -0.00195839  0.24985643  1
  Pb  Pb114  1  0.75096799  0.00439943  0.49456779  1
  Pb  Pb115  1  0.75115609  -0.00847346  0.75749211  1
  Pb  Pb116  1  0.74574707  0.25560127  0.00132003  1
  Pb  Pb117  1  0.75864407  0.24665372  0.25544259  1
  Pb  Pb118  1  0.75951227  0.24375803  0.49582457  1
  Pb  Pb119  1  0.74224078  0.25005501  0.75202541  1
  Pb  Pb120  1  0.74979242  0.50787118  0.00844829  1
  Pb  Pb121  1  0.75228842  0.50766837  0.24518477  1
  Pb  Pb122  1  0.75827829  0.50340071  0.49473285  1
  Pb  Pb123  1  0.74473689  0.49410094  0.75129674  1
  Pb  Pb124  1  0.74969850  0.75877284  0.00550151  1
  Pb  Pb125  1  0.74848685  0.75428428  0.23652711  1
  Pb  Pb126  1  0.75783040  0.74523770  0.49686132  1
  Pb  Pb127  1  0.75176952  0.75819478  0.75920379  1
  O  O128  1  0.13045351  -0.00530562  0.16493857  1
  O  O129  1  0.12441677  0.00069649  0.41724004  1
  O  O130  1  0.12267022  0.00186484  0.66420738  1
  O  O131  1  0.12666929  0.00292844  0.90788658  1
  O  O132  1  0.12865551  0.24482316  0.16724545  1
  O  O133  1  0.12892745  0.24396893  0.40817999  1
  O  O134  1  0.12318142  0.25980603  0.66289803  1
  O  O135  1  0.12533462  0.25614192  0.91879268  1
  O  O136  1  0.12909365  0.50181354  0.16378375  1
  O  O137  1  0.12794694  0.50574699  0.40866527  1
  O  O138  1  0.12245699  0.49168695  0.66460207  1
  O  O139  1  0.12470914  0.49546279  0.91963039  1
  O  O140  1  0.12813839  0.76088999  0.15902487  1
  O  O141  1  0.12269493  0.74776945  0.41657452  1
  O  O142  1  0.12217299  0.74690881  0.66337345  1
  O  O143  1  0.12526895  0.74762630  0.90997414  1
  O  O144  1  0.37436565  -0.00370340  0.16277930  1
  O  O145  1  0.37282223  -0.00205105  0.41546386  1
  O  O146  1  0.37832271  0.01007594  0.66379814  1
  O  O147  1  0.37396130  0.00820729  0.90030371  1
  O  O148  1  0.37672047  0.25204614  0.16137077  1
  O  O149  1  0.37428235  0.25594836  0.41355433  1
  O  O150  1  0.37855165  0.24584017  0.66406310  1
  O  O151  1  0.37312469  0.25798024  0.91376550  1
  O  O152  1  0.37392230  0.50229861  0.16016178  1
  O  O153  1  0.37452329  0.49821119  0.41444364  1
  O  O154  1  0.38006446  0.50414905  0.66630655  1
  O  O155  1  0.37554829  0.49685156  0.91817737  1
  O  O156  1  0.37282487  0.75277554  0.16139076  1
  O  O157  1  0.37393532  0.74799938  0.42027622  1
  O  O158  1  0.37891194  0.73722338  0.66639864  1
  O  O159  1  0.37771028  0.73874301  0.90739673  1
  O  O160  1  0.62137972  0.00869001  0.16368955  1
  O  O161  1  0.62664185  -0.00220437  0.41500561  1
  O  O162  1  0.62555420  -0.00447538  0.66503926  1
  O  O163  1  0.62303824  0.00569069  0.91323245  1
  O  O164  1  0.62268773  0.24437801  0.16696055  1
  O  O165  1  0.61957508  0.26066481  0.40982292  1
  O  O166  1  0.62512235  0.25121690  0.66485983  1
  O  O167  1  0.62398287  0.25090151  0.91841109  1
  O  O168  1  0.62098551  0.49933784  0.16590989  1
  O  O169  1  0.62272428  0.49633592  0.41281985  1
  O  O170  1  0.62573959  0.49964532  0.66513862  1
  O  O171  1  0.62403522  0.50244473  0.91849605  1
  O  O172  1  0.62173248  0.74978930  0.16028140  1
  O  O173  1  0.62810673  0.74326737  0.40422324  1
  O  O174  1  0.62617901  0.75287432  0.66580414  1
  O  O175  1  0.62251290  0.74168239  0.91568201  1
  O  O176  1  0.87452138  0.00642917  0.16165356  1
  O  O177  1  0.87874106  -0.00774336  0.41428639  1
  O  O178  1  0.87008835  -0.00666817  0.66292018  1
  O  O179  1  0.87399600  0.01144321  0.90851982  1
  O  O180  1  0.87268557  0.24372259  0.16510971  1
  O  O181  1  0.87640117  0.25107496  0.41348274  1
  O  O182  1  0.87050033  0.25954123  0.66480553  1
  O  O183  1  0.87740595  0.25534591  0.91717309  1
  O  O184  1  0.87617577  0.49303287  0.15854606  1
  O  O185  1  0.87447701  0.50036771  0.41077774  1
  O  O186  1  0.86912121  0.49089382  0.66529220  1
  O  O187  1  0.87436683  0.49664902  0.91892151  1
  O  O188  1  0.87761046  0.75531611  0.15590727  1
  O  O189  1  0.87690936  0.75500901  0.41308526  1
  O  O190  1  0.86940327  0.75494123  0.66695400  1
  O  O191  1  0.87152452  0.74004686  0.91298119  1
  O  O192  1  -0.00436236  0.12384945  0.15938273  1
  O  O193  1  0.00807744  0.12340063  0.41361886  1
  O  O194  1  -0.00454961  0.12857438  0.66555253  1
  O  O195  1  -0.00711112  0.13214062  0.91371537  1
  O  O196  1  -0.00717807  0.36858849  0.16250850  1
  O  O197  1  0.00494534  0.37532059  0.40964824  1
  O  O198  1  -0.00337685  0.37578848  0.65766560  1
  O  O199  1  -0.00281599  0.37652604  0.91875410  1
  O  O200  1  0.00259814  0.62557967  0.16105567  1
  O  O201  1  0.00643985  0.62545229  0.41278715  1
  O  O202  1  -0.00635293  0.62121481  0.66595750  1
  O  O203  1  -0.00602747  0.61960613  0.91326151  1
  O  O204  1  0.00694598  0.88202252  0.15380583  1
  O  O205  1  -0.00194430  0.87401892  0.41873612  1
  O  O206  1  -0.00933937  0.87395615  0.66167940  1
  O  O207  1  -0.00003283  0.87501616  0.91199276  1
  O  O208  1  0.25653632  0.12295970  0.16372172  1
  O  O209  1  0.24546372  0.12254730  0.41475379  1
  O  O210  1  0.25625360  0.12948780  0.66220935  1
  O  O211  1  0.25840028  0.13246751  0.91238422  1
  O  O212  1  0.26239499  0.37492933  0.16801551  1
  O  O213  1  0.25370328  0.37689439  0.41295660  1
  O  O214  1  0.24623238  0.37660976  0.65970663  1
  O  O215  1  0.25204971  0.37738099  0.91503044  1
  O  O216  1  0.25568884  0.62895969  0.16327970  1
  O  O217  1  0.24454667  0.62725089  0.41346771  1
  O  O218  1  0.25703636  0.61928030  0.66054064  1
  O  O219  1  0.25865063  0.61859031  0.91231535  1
  O  O220  1  0.25236390  0.87653655  0.16467660  1
  O  O221  1  0.24341752  0.87272363  0.41692063  1
  O  O222  1  0.25106670  0.87378963  0.66421565  1
  O  O223  1  0.25328235  0.87350671  0.90742651  1
  O  O224  1  0.49955933  0.12576565  0.16536645  1
  O  O225  1  0.49882295  0.12748598  0.41815639  1
  O  O226  1  0.50046216  0.12617658  0.66509157  1
  O  O227  1  0.49004084  0.13259653  0.91099485  1
  O  O228  1  0.49145426  0.37638436  0.16745003  1
  O  O229  1  0.49728924  0.37828287  0.41415276  1
  O  O230  1  0.50513811  0.37560489  0.66338444  1
  O  O231  1  0.49296888  0.37654699  0.91325959  1
  O  O232  1  0.49072284  0.62729489  0.16346423  1
  O  O233  1  0.50776487  0.62157319  0.41181532  1
  O  O234  1  0.50318929  0.62338320  0.66756805  1
  O  O235  1  0.49777463  0.61912027  0.91597190  1
  O  O236  1  0.49090456  0.87553875  0.16058674  1
  O  O237  1  0.50237940  0.87150012  0.41256356  1
  O  O238  1  0.50797815  0.87383225  0.66440275  1
  O  O239  1  0.49580562  0.87395267  0.91365855  1
  O  O240  1  0.74762418  0.12539325  0.16156492  1
  O  O241  1  0.74902281  0.12620095  0.41211926  1
  O  O242  1  0.74623721  0.12596031  0.66642117  1
  O  O243  1  0.75749968  0.13407524  0.91064509  1
  O  O244  1  0.75449657  0.37015924  0.16520738  1
  O  O245  1  0.74373180  0.37627803  0.40485669  1
  O  O246  1  0.74834940  0.37462599  0.66588462  1
  O  O247  1  0.75793308  0.37538492  0.91636999  1
  O  O248  1  0.75065515  0.62311060  0.15888157  1
  O  O249  1  0.74251260  0.62114184  0.41043412  1
  O  O250  1  0.74368262  0.62419923  0.66907412  1
  O  O251  1  0.74772159  0.61963235  0.91653631  1
  O  O252  1  0.75037651  0.88083917  0.15848910  1
  O  O253  1  0.75839646  0.87387195  0.40885605  1
  O  O254  1  0.74746367  0.87452536  0.66873568  1
  O  O255  1  0.74699578  0.87384884  0.91817827  1
  O  O256  1  0.12935029  0.12777145  0.03302468  1
  O  O257  1  0.12640546  0.11885458  0.29878588  1
  O  O258  1  0.12541086  0.12767215  0.53715414  1
  O  O259  1  0.12717227  0.13839950  0.78663126  1
  O  O260  1  0.13228698  0.37010118  0.04448874  1
  O  O261  1  0.13265648  0.37406915  0.27801489  1
  O  O262  1  0.12917284  0.37656661  0.54488992  1
  O  O263  1  0.12359566  0.37642439  0.79990103  1
  O  O264  1  0.12726251  0.62210809  0.03101536  1
  O  O265  1  0.12608583  0.62914524  0.29832353  1
  O  O266  1  0.12019733  0.62065114  0.53634212  1
  O  O267  1  0.12442350  0.61251813  0.78822384  1
  O  O268  1  0.13103658  0.88022555  0.04405131  1
  O  O269  1  0.12040126  0.87429426  0.30132890  1
  O  O270  1  0.12150250  0.87648290  0.53729263  1
  O  O271  1  0.12188124  0.87420561  0.77749390  1
  O  O272  1  0.37710045  0.12244421  0.04858839  1
  O  O273  1  0.38019679  0.12371824  0.28520396  1
  O  O274  1  0.37569980  0.12802708  0.54773272  1
  O  O275  1  0.37321523  0.13433218  0.79401616  1
  O  O276  1  0.37658611  0.37206149  0.04882636  1
  O  O277  1  0.37557173  0.37609545  0.30083586  1
  O  O278  1  0.37831677  0.37916214  0.53569876  1
  O  O279  1  0.37310061  0.37707958  0.79922468  1
  O  O280  1  0.37336329  0.62510967  0.04912184  1
  O  O281  1  0.37617400  0.63365686  0.28548967  1
  O  O282  1  0.37986374  0.62183204  0.54848326  1
  O  O283  1  0.37737117  0.61414526  0.79843404  1
  O  O284  1  0.37117050  0.87536696  0.04838848  1
  O  O285  1  0.36924981  0.86893308  0.28558739  1
  O  O286  1  0.37780913  0.86615982  0.54512363  1
  O  O287  1  0.38310499  0.86980565  0.77495718  1
  O  O288  1  0.62326847  0.12853553  0.05073882  1
  O  O289  1  0.61605584  0.12127509  0.28485025  1
  O  O290  1  0.62577613  0.12430681  0.55081163  1
  O  O291  1  0.62094518  0.13156787  0.78330501  1
  O  O292  1  0.62021166  0.37049792  0.03846017  1
  O  O293  1  0.62214318  0.37853638  0.29454648  1
  O  O294  1  0.62880872  0.37486408  0.54708420  1
  O  O295  1  0.62816117  0.37636515  0.79046542  1
  O  O296  1  0.61929603  0.61996584  0.03208409  1
  O  O297  1  0.62221278  0.62099622  0.29384155  1
  O  O298  1  0.62590470  0.62699815  0.54778584  1
  O  O299  1  0.62497509  0.62176033  0.80594841  1
  O  O300  1  0.61949330  0.88118201  0.03563915  1
  O  O301  1  0.62582866  0.88329142  0.27952572  1
  O  O302  1  0.63049579  0.87270671  0.55209323  1
  O  O303  1  0.62805899  0.87423587  0.78736927  1
  O  O304  1  0.87374708  0.12552444  0.04855824  1
  O  O305  1  0.88133825  0.12417794  0.28683110  1
  O  O306  1  0.87162150  0.13095199  0.53516280  1
  O  O307  1  0.87638226  0.13204483  0.79628825  1
  O  O308  1  0.87265337  0.36899306  0.05168852  1
  O  O309  1  0.87713673  0.36635240  0.27950092  1
  O  O310  1  0.87370181  0.37492757  0.54697627  1
  O  O311  1  0.87748843  0.37507916  0.80237922  1
  O  O312  1  0.87692287  0.61768993  0.03102514  1
  O  O313  1  0.88161486  0.62676938  0.28324468  1
  O  O314  1  0.86485055  0.62471489  0.53626701  1
  O  O315  1  0.87266922  0.61778365  0.80461516  1
  O  O316  1  0.87165244  0.87845718  0.02596005  1
  O  O317  1  0.88217094  0.87706655  0.29675415  1
  O  O318  1  0.86850606  0.86964249  0.55070666  1
  O  O319  1  0.86282220  0.87494383  0.79098005  1
