# generated using pymatgen
data_VFe(PbO3)2
_symmetry_space_group_name_H-M   'P 1'
_cell_length_a   15.38378861
_cell_length_b   15.38632102
_cell_length_c   18.50192696
_cell_angle_alpha   89.97904389
_cell_angle_beta   89.96667527
_cell_angle_gamma   90.00847147
_symmetry_Int_Tables_number   1
_chemical_formula_structural   VFe(PbO3)2
_chemical_formula_sum   'V32 Fe32 Pb64 O192'
_cell_volume   4379.40336648
_cell_formula_units_Z   32
loop_
 _symmetry_equiv_pos_site_id
 _symmetry_equiv_pos_as_xyz
  1  'x, y, z'
loop_
 _atom_site_type_symbol
 _atom_site_label
 _atom_site_symmetry_multiplicity
 _atom_site_fract_x
 _atom_site_fract_y
 _atom_site_fract_z
 _atom_site_occupancy
  V  V0  1  0.12283322  0.12483448  0.39436444  1
  V  V1  1  0.87760459  0.87425797  0.38928152  1
  V  V2  1  0.62138618  0.37485085  0.63537092  1
  V  V3  1  0.62455347  0.37464465  0.88993515  1
  V  V4  1  0.86682102  0.12787274  0.88516186  1
  V  V5  1  0.37412023  0.87377351  0.38985367  1
  V  V6  1  0.37441311  0.62514739  0.39118875  1
  V  V7  1  0.62496696  0.12244047  0.64119220  1
  V  V8  1  0.62492236  0.87521527  0.38738771  1
  V  V9  1  0.12363730  0.12584148  0.88275485  1
  V  V10  1  0.37716929  0.87314716  0.64406962  1
  V  V11  1  0.12335045  0.12844794  0.13894720  1
  V  V12  1  0.61701027  0.12598205  0.13857885  1
  V  V13  1  0.62468564  0.87367070  0.64208603  1
  V  V14  1  0.37616401  0.37620974  0.63766780  1
  V  V15  1  0.12480101  0.12165031  0.63782092  1
  V  V16  1  0.87213270  0.87380072  0.64476681  1
  V  V17  1  0.87250539  0.12692719  0.13864640  1
  V  V18  1  0.12210111  0.37264523  0.63629351  1
  V  V19  1  0.62620603  0.12543855  0.38926492  1
  V  V20  1  0.36841751  0.12622728  0.13927659  1
  V  V21  1  0.12354766  0.37400805  0.14039385  1
  V  V22  1  0.87630843  0.37528608  0.39200234  1
  V  V23  1  0.62414867  0.62514547  0.64189430  1
  V  V24  1  0.12295912  0.62526683  0.39519907  1
  V  V25  1  0.62441354  0.87761545  0.89061811  1
  V  V26  1  0.12438629  0.37516532  0.88381124  1
  V  V27  1  0.37434048  0.37530721  0.14547701  1
  V  V28  1  0.37583479  0.37554618  0.88645654  1
  V  V29  1  0.12831211  0.62377907  0.13485657  1
  V  V30  1  0.37512997  0.62711080  0.89011522  1
  V  V31  1  0.12510443  0.37538811  0.39565933  1
  Fe  Fe32  1  0.86862997  0.37408082  0.64076999  1
  Fe  Fe33  1  0.62287251  0.62366437  0.89750516  1
  Fe  Fe34  1  0.87347493  0.37149145  0.88169803  1
  Fe  Fe35  1  0.37520190  0.12958473  0.88131420  1
  Fe  Fe36  1  0.12709344  0.62335299  0.64589831  1
  Fe  Fe37  1  0.37154527  0.37527183  0.38611358  1
  Fe  Fe38  1  0.37412387  0.12175450  0.38856483  1
  Fe  Fe39  1  0.87175830  0.62524148  0.63813749  1
  Fe  Fe40  1  0.37483999  0.12430950  0.64049526  1
  Fe  Fe41  1  0.37263596  0.87620648  0.12845650  1
  Fe  Fe42  1  0.12406743  0.87541145  0.64746452  1
  Fe  Fe43  1  0.87841139  0.62830619  0.38694126  1
  Fe  Fe44  1  0.87389773  0.12335424  0.63164471  1
  Fe  Fe45  1  0.62470309  0.37618425  0.37835597  1
  Fe  Fe46  1  0.62208444  0.12774066  0.88295909  1
  Fe  Fe47  1  0.12615218  0.87358367  0.87542580  1
  Fe  Fe48  1  0.87685706  0.12193351  0.39630068  1
  Fe  Fe49  1  0.87890327  0.62358928  0.12738397  1
  Fe  Fe50  1  0.62692111  0.62773844  0.38069682  1
  Fe  Fe51  1  0.62581461  0.87973139  0.13147209  1
  Fe  Fe52  1  0.87512048  0.87812851  0.89175637  1
  Fe  Fe53  1  0.87727469  0.87632326  0.12617441  1
  Fe  Fe54  1  0.37068907  0.62536966  0.13149853  1
  Fe  Fe55  1  0.12600249  0.87363522  0.38911090  1
  Fe  Fe56  1  0.87517965  0.62269978  0.88764543  1
  Fe  Fe57  1  0.12506389  0.87584834  0.13257588  1
  Fe  Fe58  1  0.37915494  0.62483711  0.63637764  1
  Fe  Fe59  1  0.37558765  0.87813768  0.88721663  1
  Fe  Fe60  1  0.62340271  0.62488628  0.12727891  1
  Fe  Fe61  1  0.12739861  0.62118291  0.87602480  1
  Fe  Fe62  1  0.62713010  0.37115619  0.14860577  1
  Fe  Fe63  1  0.87903964  0.37295485  0.13563718  1
  Pb  Pb64  1  0.00511605  -0.00925153  -0.00303630  1
  Pb  Pb65  1  0.00318535  -0.00792314  0.24930612  1
  Pb  Pb66  1  0.00690874  -0.00954840  0.50639274  1
  Pb  Pb67  1  -0.00737242  -0.01317719  0.75836663  1
  Pb  Pb68  1  -0.00479977  0.25335128  -0.00228197  1
  Pb  Pb69  1  -0.00439745  0.24089935  0.25657654  1
  Pb  Pb70  1  -0.00718089  0.25249299  0.50793086  1
  Pb  Pb71  1  -0.00868258  0.25162617  0.74632320  1
  Pb  Pb72  1  -0.00866890  0.50166676  -0.00650607  1
  Pb  Pb73  1  -0.00710322  0.50428448  0.24898820  1
  Pb  Pb74  1  -0.00997131  0.50536879  0.50996173  1
  Pb  Pb75  1  -0.01113607  0.50728559  0.75101026  1
  Pb  Pb76  1  0.00192328  0.74767608  -0.01478588  1
  Pb  Pb77  1  -0.00578280  0.74855519  0.24277637  1
  Pb  Pb78  1  0.01371821  0.74872234  0.51246064  1
  Pb  Pb79  1  -0.00019467  0.74131640  0.75148481  1
  Pb  Pb80  1  0.25048025  -0.00747919  -0.00492015  1
  Pb  Pb81  1  0.24408251  -0.00502070  0.24997572  1
  Pb  Pb82  1  0.25001077  -0.00249434  0.50424821  1
  Pb  Pb83  1  0.25713937  -0.00941435  0.75628034  1
  Pb  Pb84  1  0.24899710  0.25145046  -0.00494994  1
  Pb  Pb85  1  0.25574057  0.24786372  0.25834079  1
  Pb  Pb86  1  0.25725758  0.24373981  0.50190674  1
  Pb  Pb87  1  0.25507109  0.24605482  0.74817899  1
  Pb  Pb88  1  0.25337817  0.50463229  -0.00119119  1
  Pb  Pb89  1  0.25065369  0.49421888  0.25187296  1
  Pb  Pb90  1  0.24779415  0.50956877  0.50645982  1
  Pb  Pb91  1  0.24924047  0.50376613  0.74845254  1
  Pb  Pb92  1  0.24669996  0.76091423  -0.00591155  1
  Pb  Pb93  1  0.24786711  0.75671177  0.24419902  1
  Pb  Pb94  1  0.24706421  0.74252458  0.51145239  1
  Pb  Pb95  1  0.24566742  0.74839347  0.74971321  1
  Pb  Pb96  1  0.49503576  0.00037250  -0.00555106  1
  Pb  Pb97  1  0.49222676  -0.00133463  0.24536154  1
  Pb  Pb98  1  0.49556439  0.00305824  0.50364007  1
  Pb  Pb99  1  0.49529946  0.00213633  0.75560601  1
  Pb  Pb100  1  0.50439574  0.25440510  0.00077766  1
  Pb  Pb101  1  0.49116081  0.25426209  0.25896932  1
  Pb  Pb102  1  0.49630556  0.24865857  0.49545907  1
  Pb  Pb103  1  0.50188726  0.24119817  0.75126570  1
  Pb  Pb104  1  0.50033194  0.50469471  0.00718655  1
  Pb  Pb105  1  0.51360168  0.50947557  0.24864246  1
  Pb  Pb106  1  0.50455078  0.49694556  0.49154819  1
  Pb  Pb107  1  0.50963314  0.50629436  0.75485029  1
  Pb  Pb108  1  0.50657083  0.75140229  0.00380446  1
  Pb  Pb109  1  0.50263375  0.74819865  0.23629304  1
  Pb  Pb110  1  0.49529867  0.74673711  0.49963386  1
  Pb  Pb111  1  0.50395903  0.74962493  0.75788631  1
  Pb  Pb112  1  0.74660830  -0.00966097  0.00262827  1
  Pb  Pb113  1  0.75849665  0.00107045  0.24728890  1
  Pb  Pb114  1  0.75163350  0.00042810  0.50084649  1
  Pb  Pb115  1  0.75175788  -0.00428920  0.75414858  1
  Pb  Pb116  1  0.74484648  0.26780603  0.00976611  1
  Pb  Pb117  1  0.75166344  0.25292444  0.25352149  1
  Pb  Pb118  1  0.75992718  0.25409593  0.50453726  1
  Pb  Pb119  1  0.74708291  0.24875576  0.74722310  1
  Pb  Pb120  1  0.75529939  0.50356228  0.00055045  1
  Pb  Pb121  1  0.75109581  0.50846507  0.23977615  1
  Pb  Pb122  1  0.75400901  0.50438531  0.49577160  1
  Pb  Pb123  1  0.75775525  0.50199689  0.75555897  1
  Pb  Pb124  1  0.75464812  0.74332297  -0.00256673  1
  Pb  Pb125  1  0.75009047  0.74552897  0.23412039  1
  Pb  Pb126  1  0.75432791  0.74465534  0.49597030  1
  Pb  Pb127  1  0.75200717  0.73939762  0.76089958  1
  O  O128  1  0.12499480  0.01043650  0.16315782  1
  O  O129  1  0.12504526  0.00283066  0.41979831  1
  O  O130  1  0.12495083  0.00884849  0.65961290  1
  O  O131  1  0.12809000  0.01037935  0.90122628  1
  O  O132  1  0.12544118  0.24571320  0.16797627  1
  O  O133  1  0.12578043  0.24568819  0.41707547  1
  O  O134  1  0.13008369  0.25436924  0.66310157  1
  O  O135  1  0.12578660  0.25567460  0.91300770  1
  O  O136  1  0.12798784  0.49823469  0.16492896  1
  O  O137  1  0.12724153  0.50494577  0.41899410  1
  O  O138  1  0.13045539  0.48718200  0.66147240  1
  O  O139  1  0.12826571  0.49065180  0.90752592  1
  O  O140  1  0.12782435  0.74188176  0.15520289  1
  O  O141  1  0.12600162  0.74538954  0.41931995  1
  O  O142  1  0.12665234  0.75068318  0.66743686  1
  O  O143  1  0.12815301  0.74721940  0.89943851  1
  O  O144  1  0.37170714  0.00667265  0.16212643  1
  O  O145  1  0.37596258  -0.00713143  0.41633090  1
  O  O146  1  0.37983704  -0.00540336  0.66478987  1
  O  O147  1  0.37268011  0.00605116  0.90976050  1
  O  O148  1  0.36973326  0.24872281  0.17077014  1
  O  O149  1  0.37382719  0.24783228  0.41623169  1
  O  O150  1  0.37861158  0.25726659  0.66188357  1
  O  O151  1  0.37378984  0.25656480  0.91470982  1
  O  O152  1  0.36861077  0.49151669  0.16396865  1
  O  O153  1  0.37083916  0.50783238  0.41113542  1
  O  O154  1  0.38128067  0.49244305  0.66256245  1
  O  O155  1  0.37644476  0.49498337  0.91662516  1
  O  O156  1  0.36999967  0.75102184  0.15927957  1
  O  O157  1  0.37394686  0.75196515  0.41600450  1
  O  O158  1  0.37982580  0.75542893  0.66702805  1
  O  O159  1  0.37407472  0.74314325  0.90503288  1
  O  O160  1  0.62780985  0.01245472  0.16714649  1
  O  O161  1  0.62431853  -0.00230751  0.41911247  1
  O  O162  1  0.62347678  0.00059747  0.66470206  1
  O  O163  1  0.62353985  -0.00151962  0.91032720  1
  O  O164  1  0.62631271  0.23654694  0.17200584  1
  O  O165  1  0.62444281  0.24267065  0.40781476  1
  O  O166  1  0.62337506  0.24661522  0.65881866  1
  O  O167  1  0.62264711  0.25624878  0.91565207  1
  O  O168  1  0.62260048  0.49861544  0.15922514  1
  O  O169  1  0.62427538  0.50129254  0.40981764  1
  O  O170  1  0.62124762  0.50483191  0.66068442  1
  O  O171  1  0.62192410  0.48960420  0.91702773  1
  O  O172  1  0.62444814  0.75253683  0.15539647  1
  O  O173  1  0.62406406  0.75531810  0.41372062  1
  O  O174  1  0.62429354  0.74876309  0.66996495  1
  O  O175  1  0.62316531  0.75816881  0.91462607  1
  O  O176  1  0.87952667  0.00993369  0.16158052  1
  O  O177  1  0.87487356  -0.00849766  0.41871904  1
  O  O178  1  0.87186417  -0.00289462  0.66347648  1
  O  O179  1  0.87994481  0.01622147  0.91421715  1
  O  O180  1  0.88065344  0.24247251  0.16918809  1
  O  O181  1  0.87782049  0.25509651  0.41740129  1
  O  O182  1  0.87059145  0.24656530  0.66409452  1
  O  O183  1  0.88038676  0.24334874  0.91194940  1
  O  O184  1  0.88125515  0.49908261  0.16149698  1
  O  O185  1  0.88003814  0.49454271  0.41471629  1
  O  O186  1  0.86966105  0.49893035  0.66528493  1
  O  O187  1  0.87397491  0.49376555  0.91073475  1
  O  O188  1  0.88057207  0.74991148  0.15459020  1
  O  O189  1  0.87579308  0.75803134  0.41411868  1
  O  O190  1  0.86877901  0.75532442  0.66837663  1
  O  O191  1  0.87558585  0.75125682  0.90775581  1
  O  O192  1  0.00368741  0.12732758  0.16336875  1
  O  O193  1  0.00715010  0.12399938  0.42080706  1
  O  O194  1  0.00681469  0.13288497  0.65638073  1
  O  O195  1  0.00869790  0.13104581  0.91134925  1
  O  O196  1  0.00633279  0.37008397  0.16741660  1
  O  O197  1  0.00122696  0.37497519  0.42338798  1
  O  O198  1  0.00636832  0.37142994  0.65665853  1
  O  O199  1  0.00669651  0.37207963  0.90589491  1
  O  O200  1  0.01167856  0.62159548  0.15994636  1
  O  O201  1  0.00648020  0.62483594  0.41811290  1
  O  O202  1  -0.00224902  0.62359212  0.66320140  1
  O  O203  1  0.00408853  0.61966146  0.90639339  1
  O  O204  1  0.00099272  0.87980443  0.16097445  1
  O  O205  1  -0.00461640  0.87480177  0.41596338  1
  O  O206  1  -0.01003772  0.87525123  0.66672862  1
  O  O207  1  0.00398548  0.88196464  0.90773317  1
  O  O208  1  0.24438559  0.12749119  0.16515798  1
  O  O209  1  0.24361927  0.12160801  0.41814885  1
  O  O210  1  0.24459738  0.12946791  0.66402015  1
  O  O211  1  0.24219508  0.13542297  0.90739543  1
  O  O212  1  0.24782110  0.37019938  0.17133852  1
  O  O213  1  0.24486914  0.37593103  0.42019074  1
  O  O214  1  0.25690773  0.37383626  0.65912496  1
  O  O215  1  0.24880080  0.37351136  0.91081896  1
  O  O216  1  0.24341660  0.62019497  0.16633659  1
  O  O217  1  0.25014417  0.62850086  0.41927635  1
  O  O218  1  0.25704566  0.62221629  0.66698427  1
  O  O219  1  0.25612760  0.61578689  0.90779156  1
  O  O220  1  0.24817301  0.87918381  0.16560577  1
  O  O221  1  0.25727488  0.87434677  0.41463752  1
  O  O222  1  0.25877408  0.87711278  0.66178007  1
  O  O223  1  0.24830751  0.87717192  0.90861596  1
  O  O224  1  0.49965906  0.12577771  0.15753669  1
  O  O225  1  0.50684457  0.11991620  0.41566094  1
  O  O226  1  0.50528163  0.12438755  0.66380789  1
  O  O227  1  0.49927325  0.12929686  0.91419403  1
  O  O228  1  0.48984731  0.36713427  0.16379075  1
  O  O229  1  0.49907874  0.37480152  0.41187991  1
  O  O230  1  0.50204596  0.37443505  0.66463992  1
  O  O231  1  0.50073406  0.37376910  0.91596172  1
  O  O232  1  0.49589812  0.62313497  0.15813950  1
  O  O233  1  0.49283868  0.62905976  0.40983208  1
  O  O234  1  0.50539730  0.62754585  0.66898708  1
  O  O235  1  0.49126305  0.62107831  0.91776987  1
  O  O236  1  0.49860594  0.88277967  0.15979395  1
  O  O237  1  0.49567669  0.87380438  0.41500530  1
  O  O238  1  0.50249071  0.87481817  0.66981377  1
  O  O239  1  0.50402646  0.87663591  0.91258413  1
  O  O240  1  0.75572711  0.12667571  0.16040259  1
  O  O241  1  0.74281926  0.12063766  0.41590988  1
  O  O242  1  0.74322073  0.12307063  0.66246532  1
  O  O243  1  0.75355549  0.12850572  0.90135610  1
  O  O244  1  0.75576821  0.36832981  0.16886527  1
  O  O245  1  0.75733734  0.37422379  0.40723108  1
  O  O246  1  0.73779693  0.37457022  0.66369037  1
  O  O247  1  0.74350102  0.37145387  0.91062224  1
  O  O248  1  0.75126947  0.62404535  0.15126459  1
  O  O249  1  0.75227696  0.62636874  0.41231697  1
  O  O250  1  0.74055154  0.62682146  0.66669730  1
  O  O251  1  0.74881963  0.62340165  0.91459693  1
  O  O252  1  0.75333757  0.88219410  0.16100550  1
  O  O253  1  0.75256595  0.87541951  0.41256019  1
  O  O254  1  0.74859116  0.87630293  0.67077490  1
  O  O255  1  0.74438001  0.88057047  0.91253979  1
  O  O256  1  0.12466912  0.13004602  0.04812413  1
  O  O257  1  0.12143611  0.12316177  0.30315174  1
  O  O258  1  0.12957629  0.12367263  0.54626909  1
  O  O259  1  0.12151959  0.13212991  0.79163894  1
  O  O260  1  0.12655523  0.37299813  0.04939815  1
  O  O261  1  0.12179842  0.37588627  0.30471830  1
  O  O262  1  0.12514621  0.37221947  0.54497569  1
  O  O263  1  0.12705335  0.37223304  0.79283494  1
  O  O264  1  0.13191312  0.61801429  0.04385690  1
  O  O265  1  0.12558332  0.62572569  0.30467451  1
  O  O266  1  0.13224650  0.62861784  0.54287362  1
  O  O267  1  0.12901507  0.61616860  0.77464185  1
  O  O268  1  0.13107337  0.87999659  0.03233815  1
  O  O269  1  0.12633293  0.87893808  0.28945527  1
  O  O270  1  0.11688710  0.87480065  0.54456648  1
  O  O271  1  0.12705867  0.88450894  0.77285862  1
  O  O272  1  0.36711603  0.13178595  0.04833325  1
  O  O273  1  0.37544019  0.12692825  0.28892047  1
  O  O274  1  0.37572352  0.12125439  0.53979314  1
  O  O275  1  0.37810151  0.13150640  0.77942468  1
  O  O276  1  0.36880347  0.37087099  0.05448644  1
  O  O277  1  0.36758770  0.36787614  0.28642873  1
  O  O278  1  0.37896340  0.37610258  0.54632005  1
  O  O279  1  0.37815344  0.37610483  0.79541704  1
  O  O280  1  0.36817762  0.61685281  0.03224510  1
  O  O281  1  0.36875707  0.62852091  0.30079969  1
  O  O282  1  0.37562692  0.63074488  0.53646810  1
  O  O283  1  0.38133666  0.61783274  0.79857035  1
  O  O284  1  0.36545763  0.87867870  0.02740471  1
  O  O285  1  0.37544053  0.87464066  0.29888233  1
  O  O286  1  0.38234286  0.87234817  0.55250353  1
  O  O287  1  0.37614937  0.88305564  0.78616333  1
  O  O288  1  0.62389413  0.12819866  0.04733871  1
  O  O289  1  0.62587181  0.11917408  0.29867753  1
  O  O290  1  0.62399163  0.12045290  0.54995290  1
  O  O291  1  0.62008197  0.13173500  0.78325389  1
  O  O292  1  0.62835747  0.35851248  0.04706807  1
  O  O293  1  0.62140956  0.37128856  0.27790495  1
  O  O294  1  0.62128320  0.37754738  0.54395613  1
  O  O295  1  0.62145168  0.37598952  0.79853909  1
  O  O296  1  0.61638138  0.62591074  0.02460467  1
  O  O297  1  0.62159287  0.62586144  0.28114602  1
  O  O298  1  0.62287383  0.62951475  0.55095600  1
  O  O299  1  0.61711129  0.62421432  0.79600588  1
  O  O300  1  0.62571938  0.88540151  0.03189146  1
  O  O301  1  0.62366275  0.87985844  0.29674985  1
  O  O302  1  0.62520352  0.87156715  0.55139547  1
  O  O303  1  0.62459432  0.87518724  0.79873998  1
  O  O304  1  0.87537092  0.13194115  0.04794923  1
  O  O305  1  0.87880641  0.12570328  0.29666217  1
  O  O306  1  0.86761495  0.12851200  0.53074864  1
  O  O307  1  0.87654445  0.12731362  0.79313935  1
  O  O308  1  0.87505050  0.36559532  0.03513178  1
  O  O309  1  0.88622691  0.37233106  0.30131097  1
  O  O310  1  0.87095930  0.37021038  0.53918619  1
  O  O311  1  0.87175738  0.37125118  0.78081991  1
  O  O312  1  0.88113023  0.61870892  0.02631692  1
  O  O313  1  0.88686467  0.62614225  0.28717510  1
  O  O314  1  0.87083355  0.62133834  0.53690878  1
  O  O315  1  0.86951170  0.61946611  0.78394543  1
  O  O316  1  0.87623648  0.88784852  0.02509697  1
  O  O317  1  0.87920787  0.87734785  0.29791890  1
  O  O318  1  0.87121113  0.87181922  0.55376387  1
  O  O319  1  0.87299558  0.89129937  0.79032736  1
