# generated using pymatgen
data_VFe(PbO3)2
_symmetry_space_group_name_H-M   'P 1'
_cell_length_a   15.38704902
_cell_length_b   15.39520505
_cell_length_c   18.52318919
_cell_angle_alpha   89.95707003
_cell_angle_beta   89.96862971
_cell_angle_gamma   90.00638897
_symmetry_Int_Tables_number   1
_chemical_formula_structural   VFe(PbO3)2
_chemical_formula_sum   'V32 Fe32 Pb64 O192'
_cell_volume   4387.89662697
_cell_formula_units_Z   32
loop_
 _symmetry_equiv_pos_site_id
 _symmetry_equiv_pos_as_xyz
  1  'x, y, z'
loop_
 _atom_site_type_symbol
 _atom_site_label
 _atom_site_symmetry_multiplicity
 _atom_site_fract_x
 _atom_site_fract_y
 _atom_site_fract_z
 _atom_site_occupancy
  V  V0  1  0.62362310  0.11729298  0.38649293  1
  V  V1  1  0.12333022  0.12165667  0.14705038  1
  V  V2  1  0.12170616  0.37580152  0.38972261  1
  V  V3  1  0.87460037  0.37258713  0.88733772  1
  V  V4  1  0.37377816  0.37667081  0.14063546  1
  V  V5  1  0.37261825  0.12479975  0.63740861  1
  V  V6  1  0.87273648  0.12287016  0.14283155  1
  V  V7  1  0.11972787  0.12788048  0.88769917  1
  V  V8  1  0.62700318  0.87286446  0.13644171  1
  V  V9  1  0.87234718  0.62491891  0.64757002  1
  V  V10  1  0.37622001  0.37742168  0.39204888  1
  V  V11  1  0.12325161  0.87015311  0.14452348  1
  V  V12  1  0.87272232  0.62687692  0.13704024  1
  V  V13  1  0.62425072  0.37430811  0.38786469  1
  V  V14  1  0.87504189  0.37694136  0.64030275  1
  V  V15  1  0.37419251  0.12654233  0.89098778  1
  V  V16  1  0.62463034  0.12315855  0.13823797  1
  V  V17  1  0.62484110  0.37554354  0.64011067  1
  V  V18  1  0.37622749  0.87540983  0.64475762  1
  V  V19  1  0.12414845  0.12326872  0.63507448  1
  V  V20  1  0.12552939  0.62178527  0.14229143  1
  V  V21  1  0.62011790  0.36994511  0.89357254  1
  V  V22  1  0.12295720  0.37226620  0.14248999  1
  V  V23  1  0.37366010  0.62912168  0.13667165  1
  V  V24  1  0.37100482  0.62582415  0.64614458  1
  V  V25  1  0.62272504  0.12356650  0.64096012  1
  V  V26  1  0.62496197  0.62162900  0.38872192  1
  V  V27  1  0.37665460  0.62676248  0.38959779  1
  V  V28  1  0.62393669  0.62495393  0.64612494  1
  V  V29  1  0.12616664  0.87505487  0.64133341  1
  V  V30  1  0.12273385  0.62653776  0.64350625  1
  V  V31  1  0.37235782  0.37396532  0.88803087  1
  Fe  Fe32  1  0.62572081  0.62488134  0.12803047  1
  Fe  Fe33  1  0.87351296  0.12764718  0.64319264  1
  Fe  Fe34  1  0.37364438  0.87619937  0.13746368  1
  Fe  Fe35  1  0.87135122  0.87281189  0.38280620  1
  Fe  Fe36  1  0.87179399  0.37770818  0.38237315  1
  Fe  Fe37  1  0.37770712  0.12783716  0.38122301  1
  Fe  Fe38  1  0.87547408  0.87452053  0.64451363  1
  Fe  Fe39  1  0.37351536  0.12571865  0.14457167  1
  Fe  Fe40  1  0.62324823  0.87857839  0.87691162  1
  Fe  Fe41  1  0.62727020  0.37469251  0.13345557  1
  Fe  Fe42  1  0.12804896  0.62350085  0.38328732  1
  Fe  Fe43  1  0.12658162  0.87379644  0.38031789  1
  Fe  Fe44  1  0.87747816  0.87762373  0.87655357  1
  Fe  Fe45  1  0.37484211  0.62229151  0.88161397  1
  Fe  Fe46  1  0.12683729  0.37547337  0.63874826  1
  Fe  Fe47  1  0.62517480  0.86857228  0.38709625  1
  Fe  Fe48  1  0.12723162  0.87754835  0.88096844  1
  Fe  Fe49  1  0.12591906  0.12600734  0.38351004  1
  Fe  Fe50  1  0.12561724  0.36917375  0.88155367  1
  Fe  Fe51  1  0.87588512  0.62280669  0.87823871  1
  Fe  Fe52  1  0.12450247  0.62201492  0.88113849  1
  Fe  Fe53  1  0.62260728  0.87293046  0.64559343  1
  Fe  Fe54  1  0.87248872  0.12713494  0.38860099  1
  Fe  Fe55  1  0.37915052  0.87462737  0.38117692  1
  Fe  Fe56  1  0.87794917  0.87527436  0.13916734  1
  Fe  Fe57  1  0.62483619  0.62341113  0.88890268  1
  Fe  Fe58  1  0.62467386  0.12640353  0.88420653  1
  Fe  Fe59  1  0.87748393  0.37433210  0.14096195  1
  Fe  Fe60  1  0.37290374  0.87598331  0.88301029  1
  Fe  Fe61  1  0.87521834  0.62343009  0.38443407  1
  Fe  Fe62  1  0.37792926  0.37579362  0.63616372  1
  Fe  Fe63  1  0.87350848  0.12862353  0.87605087  1
  Pb  Pb64  1  -0.01077672  -0.00889438  -0.00366289  1
  Pb  Pb65  1  0.00248110  0.00099897  0.25817098  1
  Pb  Pb66  1  -0.00270938  -0.00413420  0.49111945  1
  Pb  Pb67  1  -0.00943381  -0.00163571  0.74836148  1
  Pb  Pb68  1  -0.00719588  0.25435555  0.00124252  1
  Pb  Pb69  1  -0.00326654  0.23984459  0.25945867  1
  Pb  Pb70  1  -0.00674270  0.24276584  0.50005586  1
  Pb  Pb71  1  0.00070738  0.25154945  0.74791095  1
  Pb  Pb72  1  -0.00147314  0.49795017  -0.00618426  1
  Pb  Pb73  1  -0.00605700  0.50588340  0.25384606  1
  Pb  Pb74  1  0.00099025  0.50215402  0.49710486  1
  Pb  Pb75  1  0.00291512  0.50679615  0.75456979  1
  Pb  Pb76  1  -0.00248608  0.75260932  -0.01266183  1
  Pb  Pb77  1  -0.00548520  0.74344297  0.25484643  1
  Pb  Pb78  1  -0.00332860  0.75282983  0.49122843  1
  Pb  Pb79  1  0.00097121  0.75071300  0.75352569  1
  Pb  Pb80  1  0.25658259  -0.00355502  0.00345242  1
  Pb  Pb81  1  0.25092240  -0.00575990  0.25390725  1
  Pb  Pb82  1  0.25261527  0.00166490  0.48648798  1
  Pb  Pb83  1  0.24979609  -0.00584265  0.75337236  1
  Pb  Pb84  1  0.25457826  0.24215600  0.00570009  1
  Pb  Pb85  1  0.24892426  0.24435958  0.25526296  1
  Pb  Pb86  1  0.24902798  0.25700230  0.49976877  1
  Pb  Pb87  1  0.24630974  0.25648149  0.74686804  1
  Pb  Pb88  1  0.24452320  0.50179276  -0.00637772  1
  Pb  Pb89  1  0.24571756  0.50253192  0.25266702  1
  Pb  Pb90  1  0.24866270  0.49073470  0.50636871  1
  Pb  Pb91  1  0.24573581  0.50239882  0.75138205  1
  Pb  Pb92  1  0.25136997  0.75300838  -0.01014617  1
  Pb  Pb93  1  0.24416939  0.75397749  0.25354860  1
  Pb  Pb94  1  0.24761028  0.75394166  0.49463948  1
  Pb  Pb95  1  0.24999172  0.75824227  0.75767372  1
  Pb  Pb96  1  0.49648313  -0.00839667  -0.00210300  1
  Pb  Pb97  1  0.49370106  -0.00367091  0.24973032  1
  Pb  Pb98  1  0.50255367  -0.00815058  0.49694885  1
  Pb  Pb99  1  0.50197078  -0.00369792  0.75422461  1
  Pb  Pb100  1  0.49463675  0.24375144  0.00629124  1
  Pb  Pb101  1  0.49845180  0.24550665  0.24966778  1
  Pb  Pb102  1  0.49757718  0.25467503  0.50046236  1
  Pb  Pb103  1  0.50415688  0.24460694  0.75042751  1
  Pb  Pb104  1  0.50780011  0.50181441  0.00200699  1
  Pb  Pb105  1  0.50553200  0.50158132  0.24396927  1
  Pb  Pb106  1  0.49402715  0.49902330  0.50489457  1
  Pb  Pb107  1  0.49983881  0.50731162  0.75597407  1
  Pb  Pb108  1  0.50030397  0.74955804  -0.01200574  1
  Pb  Pb109  1  0.50296379  0.76122834  0.25031042  1
  Pb  Pb110  1  0.50717446  0.75573737  0.50566754  1
  Pb  Pb111  1  0.49846643  0.74295839  0.75892445  1
  Pb  Pb112  1  0.75274220  -0.00072660  -0.01459695  1
  Pb  Pb113  1  0.75429809  -0.00570751  0.25345370  1
  Pb  Pb114  1  0.76504407  -0.01143086  0.50820710  1
  Pb  Pb115  1  0.74917526  -0.00589564  0.74985767  1
  Pb  Pb116  1  0.75168599  0.25612847  0.00160424  1
  Pb  Pb117  1  0.75801252  0.25305186  0.25053965  1
  Pb  Pb118  1  0.75799286  0.24299312  0.50522308  1
  Pb  Pb119  1  0.74636678  0.24278704  0.75293240  1
  Pb  Pb120  1  0.74591699  0.49857344  0.00054166  1
  Pb  Pb121  1  0.75567584  0.49882553  0.24544456  1
  Pb  Pb122  1  0.75203399  0.50169026  0.49893061  1
  Pb  Pb123  1  0.74545741  0.50599629  0.75676314  1
  Pb  Pb124  1  0.75335218  0.75287493  -0.01586443  1
  Pb  Pb125  1  0.74974181  0.75804668  0.25170912  1
  Pb  Pb126  1  0.75525876  0.76228114  0.50679491  1
  Pb  Pb127  1  0.74957676  0.75804868  0.75503729  1
  O  O128  1  0.12345596  0.00345426  0.16605060  1
  O  O129  1  0.12611014  -0.00014195  0.41026616  1
  O  O130  1  0.12925928  0.00554896  0.66026899  1
  O  O131  1  0.12965677  0.01454147  0.91329861  1
  O  O132  1  0.12543186  0.25341497  0.16676709  1
  O  O133  1  0.12790151  0.25958607  0.41290080  1
  O  O134  1  0.12910450  0.24191700  0.66117377  1
  O  O135  1  0.12861031  0.24422063  0.91802343  1
  O  O136  1  0.12921271  0.49496782  0.16616976  1
  O  O137  1  0.13028477  0.49458221  0.41571271  1
  O  O138  1  0.12795014  0.50664086  0.66246206  1
  O  O139  1  0.12462839  0.49230113  0.91287105  1
  O  O140  1  0.12812551  0.75076864  0.16252090  1
  O  O141  1  0.12957999  0.74794797  0.41339539  1
  O  O142  1  0.12752911  0.74666246  0.66562716  1
  O  O143  1  0.12645002  0.75003653  0.90845810  1
  O  O144  1  0.37552977  0.00030482  0.16663398  1
  O  O145  1  0.38312554  0.00220994  0.40854835  1
  O  O146  1  0.37505548  0.00592296  0.66451850  1
  O  O147  1  0.37286047  0.01016061  0.91143229  1
  O  O148  1  0.37312789  0.25899006  0.16761107  1
  O  O149  1  0.38108159  0.25593755  0.41475126  1
  O  O150  1  0.37712681  0.24186111  0.66067771  1
  O  O151  1  0.37650662  0.25298891  0.91913241  1
  O  O152  1  0.37139174  0.49650478  0.16463469  1
  O  O153  1  0.37724081  0.50161773  0.41896739  1
  O  O154  1  0.37554769  0.50711283  0.66324348  1
  O  O155  1  0.37673692  0.48796694  0.91111109  1
  O  O156  1  0.37214833  0.74420952  0.15699493  1
  O  O157  1  0.37796802  0.74193545  0.41226751  1
  O  O158  1  0.37567573  0.74725012  0.66805707  1
  O  O159  1  0.37236488  0.74888792  0.90708228  1
  O  O160  1  0.62762472  0.00253154  0.16354878  1
  O  O161  1  0.62005277  0.00314573  0.40183464  1
  O  O162  1  0.62090461  0.00778972  0.66068743  1
  O  O163  1  0.62213343  0.00279125  0.91110859  1
  O  O164  1  0.62873712  0.24153301  0.16179094  1
  O  O165  1  0.62054588  0.26122435  0.40797071  1
  O  O166  1  0.62054759  0.24972485  0.66517939  1
  O  O167  1  0.62329025  0.25414288  0.91837817  1
  O  O168  1  0.62348694  0.50200771  0.16267555  1
  O  O169  1  0.61806484  0.50281855  0.41794070  1
  O  O170  1  0.62411275  0.50172735  0.66782785  1
  O  O171  1  0.62547910  0.48832408  0.91468236  1
  O  O172  1  0.62577057  0.75400047  0.15568302  1
  O  O173  1  0.62013040  0.73667532  0.41497849  1
  O  O174  1  0.62306760  0.74088837  0.66862635  1
  O  O175  1  0.62347005  0.75220379  0.90684037  1
  O  O176  1  0.87816291  0.00589972  0.16763838  1
  O  O177  1  0.86980813  0.00093318  0.41409531  1
  O  O178  1  0.87577166  0.00299826  0.66231583  1
  O  O179  1  0.87854227  0.00491313  0.90521223  1
  O  O180  1  0.87677928  0.24166719  0.16590619  1
  O  O181  1  0.86972822  0.25540126  0.41718638  1
  O  O182  1  0.87155843  0.26060206  0.66478897  1
  O  O183  1  0.87462248  0.25417822  0.91459540  1
  O  O184  1  0.88010524  0.50714261  0.16167142  1
  O  O185  1  0.87354141  0.49894014  0.41964326  1
  O  O186  1  0.87155806  0.49337237  0.66815406  1
  O  O187  1  0.87475548  0.48890788  0.91025854  1
  O  O188  1  0.87995636  0.74434646  0.16161918  1
  O  O189  1  0.87159544  0.74627850  0.41506206  1
  O  O190  1  0.87579761  0.74411760  0.66674438  1
  O  O191  1  0.87843371  0.75005980  0.90238955  1
  O  O192  1  0.00083024  0.12610521  0.16884466  1
  O  O193  1  0.00018015  0.12932954  0.41590492  1
  O  O194  1  0.00837196  0.12759601  0.65803930  1
  O  O195  1  0.00448075  0.13192254  0.90597728  1
  O  O196  1  0.00832900  0.37571140  0.16492132  1
  O  O197  1  0.00509700  0.37837243  0.40765270  1
  O  O198  1  -0.00628751  0.37557614  0.65817493  1
  O  O199  1  -0.00480664  0.36923335  0.91040352  1
  O  O200  1  0.00280402  0.62488364  0.16497163  1
  O  O201  1  0.00264010  0.62120276  0.41509512  1
  O  O202  1  0.00382970  0.62338598  0.66277845  1
  O  O203  1  -0.00105840  0.61890531  0.91317360  1
  O  O204  1  0.00684765  0.87629008  0.16770867  1
  O  O205  1  -0.00111682  0.87362343  0.40725516  1
  O  O206  1  0.00745484  0.87433637  0.66262170  1
  O  O207  1  0.00355108  0.88025811  0.90920289  1
  O  O208  1  0.24235006  0.12816473  0.16755417  1
  O  O209  1  0.25250724  0.12963310  0.40840238  1
  O  O210  1  0.25305047  0.12489175  0.65891902  1
  O  O211  1  0.25483842  0.13145098  0.91568856  1
  O  O212  1  0.24939853  0.37424861  0.16838630  1
  O  O213  1  0.25164882  0.37669514  0.41542440  1
  O  O214  1  0.25384099  0.37520478  0.66597756  1
  O  O215  1  0.25687257  0.36965014  0.91047001  1
  O  O216  1  0.25433043  0.62194767  0.16742988  1
  O  O217  1  0.25955814  0.62150166  0.41343682  1
  O  O218  1  0.25158223  0.62657903  0.66468242  1
  O  O219  1  0.25044283  0.61796992  0.91170131  1
  O  O220  1  0.24351617  0.87769384  0.16460131  1
  O  O221  1  0.25521519  0.87340734  0.41123880  1
  O  O222  1  0.25099472  0.87526533  0.66775762  1
  O  O223  1  0.24882256  0.88201903  0.91640207  1
  O  O224  1  0.50783120  0.12605975  0.16189929  1
  O  O225  1  0.51018491  0.13170892  0.41674105  1
  O  O226  1  0.49784138  0.12533284  0.66476675  1
  O  O227  1  0.49182151  0.13078558  0.91595683  1
  O  O228  1  0.49353258  0.37534349  0.16090766  1
  O  O229  1  0.50326737  0.38102139  0.41881418  1
  O  O230  1  0.50421558  0.37623469  0.66510622  1
  O  O231  1  0.49945842  0.37089558  0.91398978  1
  O  O232  1  0.49063644  0.62142283  0.15710974  1
  O  O233  1  0.49663195  0.62072629  0.41786204  1
  O  O234  1  0.50098591  0.62401593  0.66623055  1
  O  O235  1  0.49755781  0.61899190  0.91518362  1
  O  O236  1  0.50821389  0.87600217  0.16089458  1
  O  O237  1  0.50135941  0.87014003  0.41908340  1
  O  O238  1  0.49409529  0.87586186  0.66793680  1
  O  O239  1  0.49738203  0.87941957  0.90898624  1
  O  O240  1  0.75276831  0.12250908  0.16250400  1
  O  O241  1  0.73566646  0.13124764  0.41626170  1
  O  O242  1  0.74032217  0.13004438  0.66145181  1
  O  O243  1  0.75064559  0.13008983  0.90899237  1
  O  O244  1  0.75105262  0.37487303  0.16543571  1
  O  O245  1  0.73934882  0.38402179  0.40966729  1
  O  O246  1  0.74629198  0.37589027  0.66890208  1
  O  O247  1  0.75063131  0.37058210  0.91116904  1
  O  O248  1  0.75617838  0.62464449  0.15432708  1
  O  O249  1  0.74018298  0.61787328  0.40882947  1
  O  O250  1  0.74530886  0.62180690  0.66922619  1
  O  O251  1  0.75255854  0.61990687  0.90903984  1
  O  O252  1  0.74534893  0.87643144  0.16235148  1
  O  O253  1  0.74639064  0.87238513  0.41914085  1
  O  O254  1  0.74821322  0.87359313  0.66722725  1
  O  O255  1  0.75097996  0.87735694  0.90301569  1
  O  O256  1  0.12095924  0.12568167  0.05669329  1
  O  O257  1  0.11795407  0.13020411  0.28277717  1
  O  O258  1  0.12594456  0.12471280  0.54420616  1
  O  O259  1  0.12595222  0.13030511  0.79635481  1
  O  O260  1  0.12539756  0.37191575  0.05159202  1
  O  O261  1  0.12791426  0.37754238  0.29859853  1
  O  O262  1  0.13490593  0.37522294  0.53897778  1
  O  O263  1  0.12680195  0.36589624  0.78123361  1
  O  O264  1  0.12939002  0.61959329  0.05163216  1
  O  O265  1  0.12943890  0.62353789  0.28286400  1
  O  O266  1  0.12601862  0.62769183  0.55273951  1
  O  O267  1  0.12121981  0.61815949  0.78047337  1
  O  O268  1  0.12271877  0.87592982  0.05376149  1
  O  O269  1  0.13322467  0.87401957  0.27976217  1
  O  O270  1  0.13161622  0.87255216  0.55037824  1
  O  O271  1  0.13450088  0.87803169  0.78052835  1
  O  O272  1  0.37201429  0.13529123  0.04411552  1
  O  O273  1  0.38266855  0.13344039  0.28020886  1
  O  O274  1  0.37758288  0.12384373  0.54676713  1
  O  O275  1  0.37435610  0.13014124  0.80004341  1
  O  O276  1  0.37054089  0.37507770  0.04985447  1
  O  O277  1  0.37811792  0.37884294  0.30102570  1
  O  O278  1  0.37643527  0.37761791  0.53581861  1
  O  O279  1  0.37493545  0.37025356  0.79699592  1
  O  O280  1  0.36844081  0.62216887  0.04620916  1
  O  O281  1  0.37891421  0.62488182  0.29866650  1
  O  O282  1  0.37444985  0.62885980  0.55531338  1
  O  O283  1  0.38182780  0.62053034  0.78110040  1
  O  O284  1  0.37333278  0.88309102  0.03739697  1
  O  O285  1  0.38408947  0.87051383  0.28011119  1
  O  O286  1  0.37541353  0.87596604  0.55326624  1
  O  O287  1  0.36550381  0.88119281  0.78215318  1
  O  O288  1  0.62538812  0.12210924  0.04765322  1
  O  O289  1  0.62353818  0.12775626  0.29538730  1
  O  O290  1  0.61942139  0.12842974  0.55020427  1
  O  O291  1  0.61865623  0.13229114  0.78399598  1
  O  O292  1  0.63032092  0.37660447  0.03396019  1
  O  O293  1  0.61963170  0.38017556  0.29654980  1
  O  O294  1  0.62737455  0.37587316  0.54895317  1
  O  O295  1  0.62104483  0.36918382  0.80234816  1
  O  O296  1  0.62375145  0.61682845  0.02855384  1
  O  O297  1  0.61973445  0.62100071  0.29746353  1
  O  O298  1  0.62529977  0.62422205  0.55523190  1
  O  O299  1  0.61731223  0.61576075  0.78734788  1
  O  O300  1  0.62649789  0.87904818  0.04606666  1
  O  O301  1  0.62620223  0.86144288  0.28664040  1
  O  O302  1  0.62057355  0.86753588  0.54387512  1
  O  O303  1  0.62301422  0.88123774  0.77490442  1
  O  O304  1  0.87710097  0.12351851  0.05195203  1
  O  O305  1  0.87552736  0.12986795  0.28831702  1
  O  O306  1  0.86913172  0.13849190  0.54151763  1
  O  O307  1  0.87688233  0.13465415  0.77450289  1
  O  O308  1  0.87834624  0.36627579  0.04098271  1
  O  O309  1  0.86940726  0.37935248  0.28180978  1
  O  O310  1  0.86778997  0.37856732  0.54913756  1
  O  O311  1  0.87454542  0.37042416  0.79648398  1
  O  O312  1  0.87940618  0.62567347  0.04638217  1
  O  O313  1  0.88148820  0.62283645  0.28396948  1
  O  O314  1  0.87058753  0.61816175  0.55622810  1
  O  O315  1  0.88126472  0.61540134  0.77726651  1
  O  O316  1  0.88221409  0.88136272  0.03973447  1
  O  O317  1  0.86232185  0.87185216  0.28095314  1
  O  O318  1  0.86793291  0.87411572  0.54205512  1
  O  O319  1  0.88024785  0.87789664  0.77458003  1
