# generated using pymatgen
data_VFe(PbO3)2
_symmetry_space_group_name_H-M   'P 1'
_cell_length_a   15.37568926
_cell_length_b   15.38334853
_cell_length_c   18.55129049
_cell_angle_alpha   89.98529044
_cell_angle_beta   90.06206672
_cell_angle_gamma   90.01204745
_symmetry_Int_Tables_number   1
_chemical_formula_structural   VFe(PbO3)2
_chemical_formula_sum   'V32 Fe32 Pb64 O192'
_cell_volume   4387.92625934
_cell_formula_units_Z   32
loop_
 _symmetry_equiv_pos_site_id
 _symmetry_equiv_pos_as_xyz
  1  'x, y, z'
loop_
 _atom_site_type_symbol
 _atom_site_label
 _atom_site_symmetry_multiplicity
 _atom_site_fract_x
 _atom_site_fract_y
 _atom_site_fract_z
 _atom_site_occupancy
  V  V0  1  0.37476860  0.88067879  0.89470001  1
  V  V1  1  0.87553022  0.37309242  0.13668401  1
  V  V2  1  0.62331834  0.87348126  0.89483188  1
  V  V3  1  0.37734080  0.87255408  0.63696409  1
  V  V4  1  0.62663760  0.12559430  0.39017579  1
  V  V5  1  0.62654042  0.12058024  0.63692319  1
  V  V6  1  0.12361930  0.62305126  0.13532656  1
  V  V7  1  0.37619839  0.37843901  0.63642732  1
  V  V8  1  0.62970727  0.12907315  0.14120123  1
  V  V9  1  0.37721383  0.62503221  0.39084964  1
  V  V10  1  0.12263990  0.87748897  0.38681250  1
  V  V11  1  0.37367173  0.62947618  0.89674235  1
  V  V12  1  0.62508755  0.62807746  0.64517840  1
  V  V13  1  0.12800990  0.37590541  0.88363020  1
  V  V14  1  0.62243903  0.37530428  0.88652874  1
  V  V15  1  0.37336269  0.37772247  0.39188858  1
  V  V16  1  0.87542675  0.62685431  0.64662041  1
  V  V17  1  0.62555339  0.37519480  0.39581343  1
  V  V18  1  0.12304112  0.12320365  0.63652972  1
  V  V19  1  0.62857586  0.62260885  0.38688446  1
  V  V20  1  0.37458621  0.37390911  0.13998043  1
  V  V21  1  0.87345951  0.87297249  0.64375359  1
  V  V22  1  0.87587826  0.12777468  0.13593145  1
  V  V23  1  0.12735272  0.87193884  0.89555315  1
  V  V24  1  0.12375659  0.62563951  0.38928890  1
  V  V25  1  0.12935695  0.12385494  0.88796416  1
  V  V26  1  0.37392071  0.37300142  0.88657034  1
  V  V27  1  0.87516184  0.12540734  0.39120536  1
  V  V28  1  0.12437992  0.87686739  0.63932526  1
  V  V29  1  0.37773546  0.12664840  0.14180494  1
  V  V30  1  0.62126963  0.12251960  0.88770051  1
  V  V31  1  0.87534551  0.62518840  0.38811621  1
  Fe  Fe32  1  0.12514430  0.37304859  0.13561651  1
  Fe  Fe33  1  0.87675754  0.62288530  0.88745798  1
  Fe  Fe34  1  0.87301291  0.37499009  0.64307959  1
  Fe  Fe35  1  0.37692126  0.62750044  0.63222643  1
  Fe  Fe36  1  0.87779223  0.62084791  0.12636979  1
  Fe  Fe37  1  0.87450223  0.12013063  0.64010989  1
  Fe  Fe38  1  0.62468151  0.87726057  0.13504141  1
  Fe  Fe39  1  0.62755075  0.87467875  0.38139810  1
  Fe  Fe40  1  0.12915580  0.62546641  0.88063575  1
  Fe  Fe41  1  0.12324559  0.37769219  0.39400879  1
  Fe  Fe42  1  0.37536480  0.12741618  0.88630036  1
  Fe  Fe43  1  0.12593761  0.62935715  0.64260070  1
  Fe  Fe44  1  0.87646472  0.12630413  0.88193251  1
  Fe  Fe45  1  0.12300149  0.12582113  0.38253834  1
  Fe  Fe46  1  0.87574325  0.87625649  0.12537358  1
  Fe  Fe47  1  0.62236047  0.37466837  0.63662451  1
  Fe  Fe48  1  0.87568450  0.87970164  0.89864128  1
  Fe  Fe49  1  0.87615242  0.87173396  0.38349707  1
  Fe  Fe50  1  0.62434169  0.36947127  0.13336385  1
  Fe  Fe51  1  0.62557289  0.62042732  0.12464969  1
  Fe  Fe52  1  0.62106718  0.62582585  0.89784545  1
  Fe  Fe53  1  0.62581739  0.87382224  0.63759203  1
  Fe  Fe54  1  0.37611183  0.12596489  0.39015259  1
  Fe  Fe55  1  0.87225896  0.37899926  0.39037678  1
  Fe  Fe56  1  0.87702254  0.37121297  0.87598227  1
  Fe  Fe57  1  0.37216323  0.62014438  0.13201719  1
  Fe  Fe58  1  0.37505441  0.12283712  0.62998794  1
  Fe  Fe59  1  0.37355684  0.87482668  0.13849023  1
  Fe  Fe60  1  0.12498865  0.87729047  0.12955384  1
  Fe  Fe61  1  0.37410376  0.87172839  0.37915855  1
  Fe  Fe62  1  0.12520212  0.12868246  0.14019302  1
  Fe  Fe63  1  0.12683251  0.37532578  0.63133048  1
  Pb  Pb64  1  0.00416479  0.00160688  0.00093751  1
  Pb  Pb65  1  0.00147703  -0.00119971  0.24269302  1
  Pb  Pb66  1  -0.00727166  0.00583745  0.50036557  1
  Pb  Pb67  1  -0.00893047  -0.00431204  0.75841797  1
  Pb  Pb68  1  0.01020838  0.25034524  -0.00257977  1
  Pb  Pb69  1  0.01217326  0.25371403  0.25662312  1
  Pb  Pb70  1  0.00052423  0.25945627  0.50168895  1
  Pb  Pb71  1  -0.00623129  0.25150622  0.74450203  1
  Pb  Pb72  1  -0.00286581  0.50059075  -0.00976038  1
  Pb  Pb73  1  0.00005305  0.48869310  0.25177314  1
  Pb  Pb74  1  0.00141502  0.49363557  0.50590406  1
  Pb  Pb75  1  0.00130568  0.49591112  0.74701802  1
  Pb  Pb76  1  -0.00657732  0.74542973  -0.00292408  1
  Pb  Pb77  1  -0.00820895  0.75531745  0.23840177  1
  Pb  Pb78  1  0.00639449  0.74425640  0.50136293  1
  Pb  Pb79  1  -0.00526889  0.74821001  0.75920204  1
  Pb  Pb80  1  0.24551991  0.00058850  0.00608747  1
  Pb  Pb81  1  0.24997834  0.00141933  0.24701796  1
  Pb  Pb82  1  0.25615128  0.00352054  0.49308774  1
  Pb  Pb83  1  0.25384888  0.00220595  0.74769315  1
  Pb  Pb84  1  0.23971923  0.25005824  0.00411989  1
  Pb  Pb85  1  0.24713162  0.24344232  0.25603342  1
  Pb  Pb86  1  0.24656900  0.24758821  0.49584697  1
  Pb  Pb87  1  0.25668982  0.24356973  0.74453235  1
  Pb  Pb88  1  0.25273226  0.50052617  -0.00038404  1
  Pb  Pb89  1  0.24107773  0.49355036  0.25033343  1
  Pb  Pb90  1  0.24579121  0.51013517  0.50566378  1
  Pb  Pb91  1  0.24623348  0.50586429  0.74467758  1
  Pb  Pb92  1  0.25430236  0.75641697  0.00687386  1
  Pb  Pb93  1  0.25447375  0.75374001  0.24318213  1
  Pb  Pb94  1  0.24937882  0.74217463  0.50102590  1
  Pb  Pb95  1  0.24786514  0.74736821  0.74953298  1
  Pb  Pb96  1  0.50014382  -0.00416828  0.00691261  1
  Pb  Pb97  1  0.49843643  -0.01032812  0.25315409  1
  Pb  Pb98  1  0.49713813  -0.00379523  0.49381209  1
  Pb  Pb99  1  0.49650484  0.00372443  0.74721395  1
  Pb  Pb100  1  0.50383688  0.25659139  -0.00020995  1
  Pb  Pb101  1  0.49416310  0.24456791  0.25558505  1
  Pb  Pb102  1  0.50414058  0.25278332  0.50285326  1
  Pb  Pb103  1  0.49508558  0.24443411  0.74576604  1
  Pb  Pb104  1  0.49915758  0.50504268  0.00420977  1
  Pb  Pb105  1  0.50507899  0.50318419  0.24224292  1
  Pb  Pb106  1  0.50175617  0.50271002  0.50280285  1
  Pb  Pb107  1  0.50615948  0.50732466  0.75451574  1
  Pb  Pb108  1  0.49994655  0.76232606  0.01299528  1
  Pb  Pb109  1  0.50225727  0.75134159  0.23889113  1
  Pb  Pb110  1  0.50404856  0.75740220  0.49512115  1
  Pb  Pb111  1  0.50739083  0.74625512  0.75702551  1
  Pb  Pb112  1  0.75251460  -0.00208307  0.00102056  1
  Pb  Pb113  1  0.75294806  -0.01522500  0.25034362  1
  Pb  Pb114  1  0.75214025  0.00098447  0.50006591  1
  Pb  Pb115  1  0.75998486  -0.00497879  0.75845196  1
  Pb  Pb116  1  0.74954502  0.25507030  -0.00720679  1
  Pb  Pb117  1  0.75980815  0.25612456  0.25339119  1
  Pb  Pb118  1  0.76057108  0.25262572  0.50806520  1
  Pb  Pb119  1  0.75387796  0.25101515  0.74519722  1
  Pb  Pb120  1  0.75038697  0.50323385  -0.00570106  1
  Pb  Pb121  1  0.75117552  0.49953383  0.24086366  1
  Pb  Pb122  1  0.75118555  0.49093536  0.50931764  1
  Pb  Pb123  1  0.75436006  0.50112970  0.75570150  1
  Pb  Pb124  1  0.75746629  0.74239853  -0.00001994  1
  Pb  Pb125  1  0.74998345  0.75035343  0.23335923  1
  Pb  Pb126  1  0.74456250  0.75784158  0.49776151  1
  Pb  Pb127  1  0.75405121  0.74346983  0.76360672  1
  O  O128  1  0.12529873  0.00301146  0.16279326  1
  O  O129  1  0.12140122  -0.00622699  0.40870910  1
  O  O130  1  0.12643632  -0.00130350  0.66759815  1
  O  O131  1  0.13105588  0.00423143  0.91410241  1
  O  O132  1  0.12448133  0.25223742  0.17084456  1
  O  O133  1  0.12272761  0.24998136  0.41491452  1
  O  O134  1  0.12703111  0.24039918  0.65738561  1
  O  O135  1  0.12899217  0.24888099  0.90997150  1
  O  O136  1  0.12445460  0.50042233  0.16392982  1
  O  O137  1  0.12410063  0.50772885  0.41767418  1
  O  O138  1  0.12757234  0.50066818  0.66192955  1
  O  O139  1  0.13001523  0.49256575  0.90367388  1
  O  O140  1  0.12396308  0.74212983  0.15634311  1
  O  O141  1  0.12253404  0.74967177  0.41586498  1
  O  O142  1  0.12436801  0.75918840  0.66966249  1
  O  O143  1  0.13106419  0.75530151  0.91163386  1
  O  O144  1  0.37616754  0.00969174  0.16042754  1
  O  O145  1  0.37552166  -0.00337668  0.41143473  1
  O  O146  1  0.37467004  -0.00612104  0.66222901  1
  O  O147  1  0.37473143  0.00068228  0.91642440  1
  O  O148  1  0.37669596  0.25193831  0.16874068  1
  O  O149  1  0.37851217  0.26012247  0.41546274  1
  O  O150  1  0.37589776  0.25270051  0.65903149  1
  O  O151  1  0.37525110  0.25462652  0.91386111  1
  O  O152  1  0.37245896  0.49119016  0.16369764  1
  O  O153  1  0.37781667  0.49791827  0.41903779  1
  O  O154  1  0.37655061  0.49576616  0.66017560  1
  O  O155  1  0.37240263  0.49546859  0.91531797  1
  O  O156  1  0.37304946  0.74563801  0.16047825  1
  O  O157  1  0.37487126  0.74575766  0.41061440  1
  O  O158  1  0.37559594  0.75723797  0.66198137  1
  O  O159  1  0.37336704  0.74826489  0.91684289  1
  O  O160  1  0.62437405  0.01429326  0.16522222  1
  O  O161  1  0.62776345  0.00774105  0.41021298  1
  O  O162  1  0.62232929  0.00247338  0.66365879  1
  O  O163  1  0.61954926  0.00325706  0.91415558  1
  O  O164  1  0.62438936  0.24508701  0.17064409  1
  O  O165  1  0.62757009  0.24832782  0.41921651  1
  O  O166  1  0.62231521  0.24134140  0.66135595  1
  O  O167  1  0.62088156  0.24914821  0.90975454  1
  O  O168  1  0.62581742  0.49371578  0.16094248  1
  O  O169  1  0.62578288  0.50443476  0.41784010  1
  O  O170  1  0.62406790  0.50924317  0.66829301  1
  O  O171  1  0.62014739  0.49021141  0.90945024  1
  O  O172  1  0.62473316  0.74777636  0.15287328  1
  O  O173  1  0.62554406  0.74139299  0.40903842  1
  O  O174  1  0.62500003  0.74683864  0.67274338  1
  O  O175  1  0.61923535  0.75826781  0.91583006  1
  O  O176  1  0.87259096  0.01087058  0.15542265  1
  O  O177  1  0.87287492  0.00399997  0.41392249  1
  O  O178  1  0.87510097  -0.00849016  0.66701326  1
  O  O179  1  0.87451517  0.00764404  0.92000224  1
  O  O180  1  0.87257273  0.24932919  0.16576679  1
  O  O181  1  0.87151481  0.24413725  0.41524813  1
  O  O182  1  0.87404837  0.24541586  0.66193350  1
  O  O183  1  0.87461931  0.24954757  0.90957552  1
  O  O184  1  0.87575013  0.49075223  0.15694297  1
  O  O185  1  0.87174068  0.51076450  0.41809056  1
  O  O186  1  0.87146765  0.50942653  0.66471156  1
  O  O187  1  0.87679144  0.49291366  0.90855265  1
  O  O188  1  0.87722746  0.74829565  0.15161244  1
  O  O189  1  0.87378157  0.74153236  0.41413704  1
  O  O190  1  0.87345098  0.75212494  0.67254063  1
  O  O191  1  0.87614075  0.75175555  0.91319768  1
  O  O192  1  -0.00959427  0.12987530  0.16001213  1
  O  O193  1  -0.00697190  0.12349420  0.41275465  1
  O  O194  1  0.00789530  0.11874611  0.66208431  1
  O  O195  1  0.01068951  0.12505766  0.90888634  1
  O  O196  1  -0.00712114  0.37141680  0.16229666  1
  O  O197  1  -0.00445880  0.37910729  0.41968800  1
  O  O198  1  0.00262085  0.37518117  0.66283454  1
  O  O199  1  0.01040589  0.37017209  0.90337831  1
  O  O200  1  0.00593941  0.61979982  0.16005207  1
  O  O201  1  -0.00453476  0.62604276  0.41360942  1
  O  O202  1  -0.00690766  0.63075064  0.66458976  1
  O  O203  1  0.00648964  0.62398203  0.91027650  1
  O  O204  1  -0.00037500  0.87815266  0.15802736  1
  O  O205  1  0.00426722  0.87118218  0.41540617  1
  O  O206  1  -0.00381845  0.87383585  0.66758284  1
  O  O207  1  0.01058537  0.88074017  0.91337553  1
  O  O208  1  0.25880860  0.13093829  0.16448933  1
  O  O209  1  0.24809060  0.12530995  0.41339865  1
  O  O210  1  0.24538534  0.12017314  0.66074597  1
  O  O211  1  0.24640188  0.12704675  0.91512266  1
  O  O212  1  0.25654442  0.37153423  0.16572771  1
  O  O213  1  0.25744389  0.37936639  0.41323547  1
  O  O214  1  0.25750617  0.37320760  0.66017333  1
  O  O215  1  0.24766712  0.37144296  0.91186880  1
  O  O216  1  0.24166526  0.62010122  0.16379429  1
  O  O217  1  0.24956048  0.62503078  0.41579848  1
  O  O218  1  0.25504982  0.62912159  0.66571702  1
  O  O219  1  0.25407251  0.62304205  0.91693087  1
  O  O220  1  0.24790571  0.87589782  0.16350726  1
  O  O221  1  0.24043615  0.87114480  0.40951428  1
  O  O222  1  0.25348803  0.87602388  0.66200421  1
  O  O223  1  0.25039819  0.87737458  0.91989922  1
  O  O224  1  0.49930102  0.13078228  0.16475249  1
  O  O225  1  0.50899471  0.12830413  0.41313097  1
  O  O226  1  0.50309859  0.12196374  0.66128873  1
  O  O227  1  0.50498012  0.12704770  0.91563970  1
  O  O228  1  0.49323742  0.37170300  0.16427328  1
  O  O229  1  0.49946885  0.37794273  0.42018923  1
  O  O230  1  0.49437535  0.37469320  0.66517724  1
  O  O231  1  0.50007889  0.37233830  0.91358213  1
  O  O232  1  0.49933263  0.61862960  0.15818764  1
  O  O233  1  0.50557343  0.62240622  0.41241899  1
  O  O234  1  0.50369593  0.62813036  0.66574343  1
  O  O235  1  0.48941028  0.62159007  0.91900648  1
  O  O236  1  0.49984615  0.87932986  0.16365978  1
  O  O237  1  0.50194252  0.87309863  0.40979650  1
  O  O238  1  0.49452936  0.87530473  0.66363915  1
  O  O239  1  0.49951231  0.87755873  0.92050148  1
  O  O240  1  0.74984001  0.13105184  0.16226997  1
  O  O241  1  0.74964228  0.12557027  0.41763971  1
  O  O242  1  0.74219377  0.12063591  0.66251879  1
  O  O243  1  0.73822332  0.12546181  0.91118854  1
  O  O244  1  0.75600857  0.37000808  0.16272012  1
  O  O245  1  0.74687178  0.37712956  0.42176351  1
  O  O246  1  0.74480231  0.37659559  0.66742982  1
  O  O247  1  0.74144425  0.37104762  0.90310461  1
  O  O248  1  0.75243409  0.61947342  0.15525707  1
  O  O249  1  0.74671851  0.62470277  0.41094949  1
  O  O250  1  0.74819242  0.62961177  0.67114916  1
  O  O251  1  0.74847000  0.62341132  0.91209316  1
  O  O252  1  0.75147759  0.88000740  0.15662080  1
  O  O253  1  0.75157112  0.87321202  0.41412892  1
  O  O254  1  0.75568976  0.87262753  0.66676019  1
  O  O255  1  0.73953413  0.87989457  0.91381158  1
  O  O256  1  0.12665980  0.13573885  0.03896523  1
  O  O257  1  0.12349202  0.12972144  0.28240252  1
  O  O258  1  0.12218200  0.11804615  0.54555912  1
  O  O259  1  0.13229395  0.12278288  0.79718212  1
  O  O260  1  0.12405872  0.36494074  0.03590037  1
  O  O261  1  0.11832341  0.38226642  0.29229431  1
  O  O262  1  0.12263134  0.37682876  0.53102906  1
  O  O263  1  0.13170946  0.37141744  0.79275844  1
  O  O264  1  0.12664794  0.61909767  0.04449753  1
  O  O265  1  0.12414272  0.62565643  0.29872149  1
  O  O266  1  0.12781251  0.63487332  0.54142885  1
  O  O267  1  0.13262071  0.63034398  0.78064379  1
  O  O268  1  0.13103990  0.88167933  0.02943465  1
  O  O269  1  0.11944697  0.87407679  0.29596916  1
  O  O270  1  0.12238096  0.87618459  0.54860466  1
  O  O271  1  0.13126005  0.87752340  0.80469202  1
  O  O272  1  0.37733844  0.13171873  0.05112770  1
  O  O273  1  0.37815182  0.13348355  0.29036003  1
  O  O274  1  0.37453898  0.12074852  0.53061325  1
  O  O275  1  0.37390360  0.12652808  0.78630705  1
  O  O276  1  0.37404105  0.37136707  0.04891314  1
  O  O277  1  0.37735754  0.37919017  0.30133525  1
  O  O278  1  0.37877223  0.37775482  0.54566815  1
  O  O279  1  0.37457932  0.37460676  0.79573118  1
  O  O280  1  0.36835973  0.61460525  0.03264554  1
  O  O281  1  0.37410800  0.61844640  0.30040138  1
  O  O282  1  0.37167842  0.62521452  0.53295413  1
  O  O283  1  0.37484923  0.62702016  0.80542016  1
  O  O284  1  0.37733023  0.87234021  0.03632700  1
  O  O285  1  0.37434087  0.87472503  0.27929120  1
  O  O286  1  0.37827402  0.87367031  0.54583730  1
  O  O287  1  0.37578453  0.87528340  0.80391157  1
  O  O288  1  0.62694928  0.13124836  0.05030716  1
  O  O289  1  0.62932506  0.12991092  0.30003524  1
  O  O290  1  0.62655175  0.12053654  0.54587138  1
  O  O291  1  0.61931814  0.12033927  0.79689576  1
  O  O292  1  0.62469566  0.36385912  0.03418001  1
  O  O293  1  0.62482074  0.37493812  0.30507126  1
  O  O294  1  0.62183233  0.38040943  0.53688967  1
  O  O295  1  0.61583645  0.37472381  0.79555048  1
  O  O296  1  0.62281796  0.61519441  0.02294044  1
  O  O297  1  0.62691235  0.61847875  0.29629713  1
  O  O298  1  0.62831071  0.62965347  0.55471766  1
  O  O299  1  0.61175526  0.62835860  0.79623055  1
  O  O300  1  0.61395186  0.88403875  0.03437436  1
  O  O301  1  0.62889049  0.87975134  0.28103554  1
  O  O302  1  0.62518495  0.86430497  0.53866581  1
  O  O303  1  0.61868575  0.87496418  0.80345799  1
  O  O304  1  0.87297936  0.13300666  0.04521356  1
  O  O305  1  0.87145617  0.12552596  0.30062360  1
  O  O306  1  0.87309936  0.11357651  0.53991198  1
  O  O307  1  0.87463984  0.11430720  0.78109466  1
  O  O308  1  0.87426714  0.36865047  0.04589472  1
  O  O309  1  0.87125132  0.37798998  0.29084830  1
  O  O310  1  0.86853349  0.37875624  0.54090926  1
  O  O311  1  0.87707807  0.37446685  0.77507469  1
  O  O312  1  0.87989019  0.62020282  0.02582686  1
  O  O313  1  0.87513441  0.62329965  0.29743271  1
  O  O314  1  0.86968089  0.63158654  0.55645283  1
  O  O315  1  0.87232908  0.63029324  0.78569911  1
  O  O316  1  0.87491100  0.87916160  0.02409244  1
  O  O317  1  0.87506414  0.87482924  0.28426332  1
  O  O318  1  0.87533511  0.87008239  0.55291616  1
  O  O319  1  0.87554520  0.88570564  0.79631919  1
