# generated using pymatgen
data_VFe(PbO3)2
_symmetry_space_group_name_H-M   'P 1'
_cell_length_a   15.38923991
_cell_length_b   15.38949557
_cell_length_c   18.47668014
_cell_angle_alpha   89.98035745
_cell_angle_beta   90.02131030
_cell_angle_gamma   89.98556506
_symmetry_Int_Tables_number   1
_chemical_formula_structural   VFe(PbO3)2
_chemical_formula_sum   'V32 Fe32 Pb64 O192'
_cell_volume   4375.88022608
_cell_formula_units_Z   32
loop_
 _symmetry_equiv_pos_site_id
 _symmetry_equiv_pos_as_xyz
  1  'x, y, z'
loop_
 _atom_site_type_symbol
 _atom_site_label
 _atom_site_symmetry_multiplicity
 _atom_site_fract_x
 _atom_site_fract_y
 _atom_site_fract_z
 _atom_site_occupancy
  V  V0  1  0.12617036  0.37427442  0.89075123  1
  V  V1  1  0.87774062  0.37439057  0.63262044  1
  V  V2  1  0.37543289  0.37423560  0.39328592  1
  V  V3  1  0.63102655  0.37384450  0.38709171  1
  V  V4  1  0.62553079  0.62548511  0.14215354  1
  V  V5  1  0.62906444  0.62784067  0.88802294  1
  V  V6  1  0.62740114  0.12482569  0.88688104  1
  V  V7  1  0.12537510  0.62529967  0.39435073  1
  V  V8  1  0.87696366  0.62593578  0.14161891  1
  V  V9  1  0.37473529  0.62391575  0.14090904  1
  V  V10  1  0.87455127  0.37527493  0.89197160  1
  V  V11  1  0.87748260  0.12400514  0.14252236  1
  V  V12  1  0.62564016  0.37317630  0.63748280  1
  V  V13  1  0.12344855  0.12950674  0.63235230  1
  V  V14  1  0.12687766  0.12620597  0.39007704  1
  V  V15  1  0.87681498  0.87644651  0.88668641  1
  V  V16  1  0.62551187  0.86634582  0.40085857  1
  V  V17  1  0.88042046  0.87458557  0.39885315  1
  V  V18  1  0.37575193  0.87411743  0.40104339  1
  V  V19  1  0.37641744  0.12458464  0.13849404  1
  V  V20  1  0.62566567  0.12483029  0.14461919  1
  V  V21  1  0.37840669  0.62358787  0.88650892  1
  V  V22  1  0.62319066  0.12027578  0.40169087  1
  V  V23  1  0.37353937  0.62408775  0.39604352  1
  V  V24  1  0.88302921  0.37563200  0.38399416  1
  V  V25  1  0.12204875  0.87498818  0.14203607  1
  V  V26  1  0.12293011  0.12252255  0.89252714  1
  V  V27  1  0.37943029  0.37556787  0.13884850  1
  V  V28  1  0.37448861  0.12291137  0.40210800  1
  V  V29  1  0.12849627  0.87514962  0.39692544  1
  V  V30  1  0.37391200  0.87619022  0.88813124  1
  V  V31  1  0.62552414  0.87579689  0.88565344  1
  Fe  Fe32  1  0.62794864  0.37543446  0.14139680  1
  Fe  Fe33  1  0.62606209  0.87511050  0.62303883  1
  Fe  Fe34  1  0.87351647  0.62140407  0.62700168  1
  Fe  Fe35  1  0.12201575  0.37283267  0.62787999  1
  Fe  Fe36  1  0.87286612  0.62509582  0.88332198  1
  Fe  Fe37  1  0.87246146  0.87435361  0.14038720  1
  Fe  Fe38  1  0.62522221  0.12826434  0.62326203  1
  Fe  Fe39  1  0.12208388  0.87702363  0.63568086  1
  Fe  Fe40  1  0.62299283  0.61970443  0.39827697  1
  Fe  Fe41  1  0.87693825  0.62456099  0.39600980  1
  Fe  Fe42  1  0.12273678  0.62685401  0.88347407  1
  Fe  Fe43  1  0.12739211  0.62703298  0.13418388  1
  Fe  Fe44  1  0.37789570  0.87384505  0.13814892  1
  Fe  Fe45  1  0.12773470  0.12172640  0.13578642  1
  Fe  Fe46  1  0.12398271  0.62145087  0.63569726  1
  Fe  Fe47  1  0.87564430  0.12472881  0.39687509  1
  Fe  Fe48  1  0.37824476  0.12440607  0.88425819  1
  Fe  Fe49  1  0.12933184  0.37510484  0.39368037  1
  Fe  Fe50  1  0.37591558  0.62272015  0.63384654  1
  Fe  Fe51  1  0.87415846  0.87534559  0.62499240  1
  Fe  Fe52  1  0.62748504  0.87508333  0.14287366  1
  Fe  Fe53  1  0.12468578  0.87651548  0.87595529  1
  Fe  Fe54  1  0.12598217  0.37575691  0.13654531  1
  Fe  Fe55  1  0.87164395  0.37674839  0.14037257  1
  Fe  Fe56  1  0.62438398  0.62155675  0.62437322  1
  Fe  Fe57  1  0.37381276  0.12642484  0.62688337  1
  Fe  Fe58  1  0.37391143  0.87438455  0.62729668  1
  Fe  Fe59  1  0.62623261  0.37516015  0.88240302  1
  Fe  Fe60  1  0.87244957  0.12611365  0.88600851  1
  Fe  Fe61  1  0.37289053  0.37487787  0.63710936  1
  Fe  Fe62  1  0.87441509  0.12879909  0.62540977  1
  Fe  Fe63  1  0.37589659  0.37277567  0.88156489  1
  Pb  Pb64  1  0.00126964  0.00157204  -0.00031211  1
  Pb  Pb65  1  -0.00682956  0.00580667  0.25768356  1
  Pb  Pb66  1  0.00239325  -0.00577484  0.50546180  1
  Pb  Pb67  1  -0.00571406  -0.00149002  0.73994930  1
  Pb  Pb68  1  0.00102816  0.25749360  0.00517046  1
  Pb  Pb69  1  0.00628163  0.25436317  0.24927912  1
  Pb  Pb70  1  -0.00032268  0.24875190  0.49785343  1
  Pb  Pb71  1  -0.00800295  0.24350467  0.74786915  1
  Pb  Pb72  1  0.00373607  0.50175167  0.00102374  1
  Pb  Pb73  1  0.00553901  0.49697637  0.24912900  1
  Pb  Pb74  1  0.01184301  0.50365456  0.50508326  1
  Pb  Pb75  1  0.00134039  0.51142135  0.74835678  1
  Pb  Pb76  1  0.00166689  0.74758588  -0.00676467  1
  Pb  Pb77  1  -0.00719486  0.74395511  0.25582941  1
  Pb  Pb78  1  0.01333949  0.74800188  0.51242434  1
  Pb  Pb79  1  -0.00242471  0.74509998  0.73895310  1
  Pb  Pb80  1  0.24816604  0.00238612  -0.00098744  1
  Pb  Pb81  1  0.25238993  -0.00050699  0.24999756  1
  Pb  Pb82  1  0.25039794  -0.00464596  0.50595539  1
  Pb  Pb83  1  0.24869453  -0.00206965  0.74075012  1
  Pb  Pb84  1  0.24609420  0.24877201  -0.00066254  1
  Pb  Pb85  1  0.24529145  0.25392801  0.24977462  1
  Pb  Pb86  1  0.25820956  0.25713035  0.50730768  1
  Pb  Pb87  1  0.25781955  0.25116977  0.74583018  1
  Pb  Pb88  1  0.24004412  0.50106214  0.00088729  1
  Pb  Pb89  1  0.24363680  0.49317818  0.25279835  1
  Pb  Pb90  1  0.25285024  0.49838341  0.50911650  1
  Pb  Pb91  1  0.24578713  0.49845589  0.73995575  1
  Pb  Pb92  1  0.24614337  0.74857320  -0.00553279  1
  Pb  Pb93  1  0.25105032  0.75094786  0.25041441  1
  Pb  Pb94  1  0.25118570  0.74381527  0.51040260  1
  Pb  Pb95  1  0.24214711  0.75038285  0.73880024  1
  Pb  Pb96  1  0.50260791  -0.00952084  0.00186180  1
  Pb  Pb97  1  0.49986837  -0.00474837  0.25531175  1
  Pb  Pb98  1  0.49964717  -0.00814285  0.50934771  1
  Pb  Pb99  1  0.49815950  0.00464912  0.73191890  1
  Pb  Pb100  1  0.50043079  0.25239325  -0.00622388  1
  Pb  Pb101  1  0.49946102  0.24783357  0.25371945  1
  Pb  Pb102  1  0.49657285  0.24900696  0.50620214  1
  Pb  Pb103  1  0.49111565  0.24633727  0.74647921  1
  Pb  Pb104  1  0.50447385  0.49636339  -0.00425245  1
  Pb  Pb105  1  0.50687622  0.50588671  0.25554382  1
  Pb  Pb106  1  0.49375622  0.50009755  0.50646757  1
  Pb  Pb107  1  0.50063080  0.49265346  0.74522536  1
  Pb  Pb108  1  0.49841572  0.75775581  0.00222553  1
  Pb  Pb109  1  0.50606196  0.74779135  0.25531617  1
  Pb  Pb110  1  0.49349168  0.74339019  0.50868308  1
  Pb  Pb111  1  0.50248744  0.75036077  0.73293069  1
  Pb  Pb112  1  0.74902275  -0.00886019  0.00255644  1
  Pb  Pb113  1  0.75477091  0.00104093  0.25922430  1
  Pb  Pb114  1  0.75215907  -0.00874976  0.50682243  1
  Pb  Pb115  1  0.75062194  0.00406901  0.73206941  1
  Pb  Pb116  1  0.74933420  0.25831150  0.00438602  1
  Pb  Pb117  1  0.75643817  0.24678692  0.25541435  1
  Pb  Pb118  1  0.74994936  0.24508599  0.50178403  1
  Pb  Pb119  1  0.74795292  0.24770800  0.74542367  1
  Pb  Pb120  1  0.75072676  0.48959065  0.00558275  1
  Pb  Pb121  1  0.75053007  0.51073657  0.25715686  1
  Pb  Pb122  1  0.75236622  0.50818074  0.49956231  1
  Pb  Pb123  1  0.74966850  0.49999805  0.74461380  1
  Pb  Pb124  1  0.75185989  0.75985206  0.00237484  1
  Pb  Pb125  1  0.75229228  0.74348999  0.25948027  1
  Pb  Pb126  1  0.75944411  0.74427723  0.50535882  1
  Pb  Pb127  1  0.75256903  0.74667767  0.73201790  1
  O  O128  1  0.12598035  -0.00647771  0.16972393  1
  O  O129  1  0.12474720  0.00035085  0.41762267  1
  O  O130  1  0.12172436  0.01147687  0.65896565  1
  O  O131  1  0.12422294  0.00198091  0.91351007  1
  O  O132  1  0.12752131  0.24788119  0.16454262  1
  O  O133  1  0.12750854  0.24281714  0.40929863  1
  O  O134  1  0.12088169  0.24493070  0.65976692  1
  O  O135  1  0.12337598  0.25057761  0.91601698  1
  O  O136  1  0.12750032  0.50325561  0.16661723  1
  O  O137  1  0.12753168  0.50749504  0.41227838  1
  O  O138  1  0.12125981  0.49475071  0.66005108  1
  O  O139  1  0.12483027  0.49456957  0.91193738  1
  O  O140  1  0.12617431  0.75521767  0.16644617  1
  O  O141  1  0.12702005  0.74849551  0.42033733  1
  O  O142  1  0.12187116  0.74934747  0.65597319  1
  O  O143  1  0.12636589  0.75360168  0.91115422  1
  O  O144  1  0.37797307  0.00294026  0.16877579  1
  O  O145  1  0.37520620  -0.00040499  0.42000621  1
  O  O146  1  0.37305731  0.00178501  0.65275080  1
  O  O147  1  0.37795853  -0.00537930  0.91209687  1
  O  O148  1  0.37724081  0.24931623  0.16557209  1
  O  O149  1  0.37112013  0.25545950  0.41460389  1
  O  O150  1  0.37455838  0.24867455  0.66112879  1
  O  O151  1  0.37555508  0.24842301  0.91730154  1
  O  O152  1  0.37697087  0.50454470  0.16533218  1
  O  O153  1  0.37101075  0.50211536  0.41551698  1
  O  O154  1  0.37635589  0.49823462  0.66374898  1
  O  O155  1  0.37817281  0.50691407  0.90799265  1
  O  O156  1  0.37788615  0.74327226  0.16805105  1
  O  O157  1  0.37402330  0.74527055  0.41843649  1
  O  O158  1  0.37487512  0.75000269  0.65922591  1
  O  O159  1  0.37889344  0.75302242  0.91362509  1
  O  O160  1  0.62486740  0.00890237  0.17342137  1
  O  O161  1  0.62100604  0.00619492  0.41321728  1
  O  O162  1  0.62630440  0.00278440  0.65095278  1
  O  O163  1  0.62592663  -0.00082725  0.91367709  1
  O  O164  1  0.62495172  0.24182631  0.17096464  1
  O  O165  1  0.61751460  0.26263304  0.41738885  1
  O  O166  1  0.62760532  0.25573333  0.65963143  1
  O  O167  1  0.62683026  0.24332988  0.90944302  1
  O  O168  1  0.62525184  0.50483762  0.16985221  1
  O  O169  1  0.61829416  0.48643109  0.41627947  1
  O  O170  1  0.62799056  0.49195733  0.66002434  1
  O  O171  1  0.62350338  0.50954077  0.91271752  1
  O  O172  1  0.62464603  0.74488354  0.17105264  1
  O  O173  1  0.62168032  0.75187561  0.41237244  1
  O  O174  1  0.62644091  0.74873779  0.64801846  1
  O  O175  1  0.62291332  0.74913421  0.91357700  1
  O  O176  1  0.87330728  0.00513856  0.17058482  1
  O  O177  1  0.87217156  -0.00520028  0.41629261  1
  O  O178  1  0.87437675  0.00388475  0.64988588  1
  O  O179  1  0.87268531  -0.00518101  0.91288840  1
  O  O180  1  0.87365385  0.24098943  0.16641692  1
  O  O181  1  0.87383764  0.25999459  0.41156249  1
  O  O182  1  0.87287924  0.25654797  0.66118370  1
  O  O183  1  0.87588573  0.25547357  0.91759339  1
  O  O184  1  0.87426586  0.50907054  0.16510747  1
  O  O185  1  0.87391784  0.48913719  0.41047160  1
  O  O186  1  0.87199413  0.48992544  0.65686257  1
  O  O187  1  0.87497280  0.49317079  0.91453836  1
  O  O188  1  0.87428629  0.74515614  0.17031761  1
  O  O189  1  0.86992884  0.75737466  0.41471947  1
  O  O190  1  0.87375158  0.74847002  0.65032415  1
  O  O191  1  0.87199710  0.75760446  0.91238776  1
  O  O192  1  -0.00452341  0.12191239  0.16352439  1
  O  O193  1  0.00854458  0.12358353  0.41409237  1
  O  O194  1  0.00202534  0.12927851  0.65819601  1
  O  O195  1  0.00340554  0.12524184  0.91756059  1
  O  O196  1  -0.00154018  0.37500120  0.16650065  1
  O  O197  1  -0.00236686  0.37402222  0.40618099  1
  O  O198  1  -0.00774510  0.37116777  0.65653265  1
  O  O199  1  0.00088986  0.37376679  0.91701390  1
  O  O200  1  -0.00380941  0.62787897  0.16225372  1
  O  O201  1  0.00771078  0.62763648  0.41340154  1
  O  O202  1  -0.00405116  0.62013911  0.65819843  1
  O  O203  1  -0.00300336  0.62492485  0.91590927  1
  O  O204  1  0.00451773  0.87519276  0.16711199  1
  O  O205  1  -0.00164520  0.87507733  0.41535859  1
  O  O206  1  -0.00366597  0.87868519  0.65824991  1
  O  O207  1  -0.00554855  0.87684940  0.90696226  1
  O  O208  1  0.25563373  0.12203611  0.16643426  1
  O  O209  1  0.24342899  0.12074018  0.41738259  1
  O  O210  1  0.24167614  0.12775939  0.65515618  1
  O  O211  1  0.24387469  0.12426874  0.91425747  1
  O  O212  1  0.25804410  0.37612934  0.16700315  1
  O  O213  1  0.25646929  0.37843751  0.41700627  1
  O  O214  1  0.24518633  0.37092076  0.65910406  1
  O  O215  1  0.24441206  0.37351286  0.91015208  1
  O  O216  1  0.25735949  0.62698567  0.16466464  1
  O  O217  1  0.24975191  0.62719559  0.41921205  1
  O  O218  1  0.24993296  0.62225361  0.65994245  1
  O  O219  1  0.25988737  0.62843709  0.91035617  1
  O  O220  1  0.24655466  0.87446602  0.16683042  1
  O  O221  1  0.24988716  0.87473228  0.42053137  1
  O  O222  1  0.24877286  0.87836410  0.65678518  1
  O  O223  1  0.25645899  0.87622003  0.90760522  1
  O  O224  1  0.50253687  0.12539699  0.16939807  1
  O  O225  1  0.49956745  0.13154316  0.41999753  1
  O  O226  1  0.50092048  0.12821925  0.65101656  1
  O  O227  1  0.50940698  0.12217102  0.91412266  1
  O  O228  1  0.49791375  0.37507942  0.16767749  1
  O  O229  1  0.49096731  0.37677438  0.41534170  1
  O  O230  1  0.50734319  0.37416787  0.65711806  1
  O  O231  1  0.50163830  0.37632022  0.91445851  1
  O  O232  1  0.49744554  0.62429584  0.16753263  1
  O  O233  1  0.49091142  0.62251023  0.41473801  1
  O  O234  1  0.50293533  0.62105794  0.65922777  1
  O  O235  1  0.49897324  0.62878661  0.91541581  1
  O  O236  1  0.50217215  0.87509423  0.17459881  1
  O  O237  1  0.50185196  0.87708409  0.41918084  1
  O  O238  1  0.50106668  0.87642186  0.65339424  1
  O  O239  1  0.50035423  0.87505670  0.91494823  1
  O  O240  1  0.74886552  0.12403451  0.16811274  1
  O  O241  1  0.74195749  0.13355318  0.41188960  1
  O  O242  1  0.74949590  0.13149595  0.65417188  1
  O  O243  1  0.74396026  0.12235558  0.91442097  1
  O  O244  1  0.74991173  0.37364940  0.17535087  1
  O  O245  1  0.74711542  0.37392198  0.39972430  1
  O  O246  1  0.75186075  0.37300808  0.66091418  1
  O  O247  1  0.75338601  0.37521352  0.91440464  1
  O  O248  1  0.75244986  0.62642605  0.16836089  1
  O  O249  1  0.74936171  0.62097899  0.41410166  1
  O  O250  1  0.74858959  0.61859885  0.65537815  1
  O  O251  1  0.74383466  0.62861297  0.91111500  1
  O  O252  1  0.75024935  0.87589476  0.17670594  1
  O  O253  1  0.74398455  0.87901353  0.41252858  1
  O  O254  1  0.74988264  0.87632478  0.65578734  1
  O  O255  1  0.74974405  0.87491951  0.91484044  1
  O  O256  1  0.12834701  0.11628886  0.03623238  1
  O  O257  1  0.12818472  0.12051511  0.29819211  1
  O  O258  1  0.12081634  0.12905522  0.54093800  1
  O  O259  1  0.12146695  0.12494894  0.80203992  1
  O  O260  1  0.12740374  0.37840722  0.03583431  1
  O  O261  1  0.13296071  0.37608662  0.29197894  1
  O  O262  1  0.12034178  0.37781177  0.52506393  1
  O  O263  1  0.12011323  0.37087617  0.80050850  1
  O  O264  1  0.13175481  0.62273736  0.03394799  1
  O  O265  1  0.13015451  0.63064248  0.30271529  1
  O  O266  1  0.12043905  0.62333908  0.53289120  1
  O  O267  1  0.11780410  0.62201491  0.78351195  1
  O  O268  1  0.12319167  0.87775158  0.05077283  1
  O  O269  1  0.12617147  0.87312371  0.30566786  1
  O  O270  1  0.11690220  0.87870083  0.53232167  1
  O  O271  1  0.12648669  0.88271076  0.77677995  1
  O  O272  1  0.37708506  0.12263007  0.04722838  1
  O  O273  1  0.37342468  0.12535958  0.31031542  1
  O  O274  1  0.36847387  0.13456071  0.52438061  1
  O  O275  1  0.37827550  0.12985808  0.78500887  1
  O  O276  1  0.37710621  0.37708083  0.04759656  1
  O  O277  1  0.37486703  0.37623960  0.30163911  1
  O  O278  1  0.36992058  0.37581623  0.53508268  1
  O  O279  1  0.37902427  0.36654583  0.78171531  1
  O  O280  1  0.37616086  0.62463915  0.05000867  1
  O  O281  1  0.36969651  0.62505243  0.30468320  1
  O  O282  1  0.37595984  0.62371053  0.53161496  1
  O  O283  1  0.38125868  0.62828566  0.79621658  1
  O  O284  1  0.38386388  0.87375416  0.03872365  1
  O  O285  1  0.37472401  0.87254396  0.30898491  1
  O  O286  1  0.37743121  0.87171846  0.52528934  1
  O  O287  1  0.37873578  0.87518430  0.79782983  1
  O  O288  1  0.62518336  0.12399130  0.05401331  1
  O  O289  1  0.61755502  0.13200742  0.30954546  1
  O  O290  1  0.62631855  0.13696916  0.52120462  1
  O  O291  1  0.62733057  0.12274821  0.79582775  1
  O  O292  1  0.63527771  0.37692495  0.04081927  1
  O  O293  1  0.61722451  0.37299111  0.29579738  1
  O  O294  1  0.62844263  0.37361119  0.54603954  1
  O  O295  1  0.62883541  0.37732694  0.78352579  1
  O  O296  1  0.62575106  0.62572363  0.05098784  1
  O  O297  1  0.62104307  0.61729641  0.29581888  1
  O  O298  1  0.61990013  0.61466758  0.52247882  1
  O  O299  1  0.62569816  0.62677226  0.79735070  1
  O  O300  1  0.62723132  0.87873833  0.04213580  1
  O  O301  1  0.61955511  0.87695212  0.30858768  1
  O  O302  1  0.62646041  0.88320075  0.52027577  1
  O  O303  1  0.62623000  0.87588537  0.79521103  1
  O  O304  1  0.87430870  0.12242210  0.05146537  1
  O  O305  1  0.87722261  0.12059453  0.29581846  1
  O  O306  1  0.87574066  0.13767764  0.52286681  1
  O  O307  1  0.87671030  0.13237162  0.78705123  1
  O  O308  1  0.86533051  0.37427119  0.03968782  1
  O  O309  1  0.88092121  0.37410833  0.29184297  1
  O  O310  1  0.87629877  0.37213064  0.54107332  1
  O  O311  1  0.87639124  0.37336740  0.80122032  1
  O  O312  1  0.87270449  0.62856260  0.05059402  1
  O  O313  1  0.87707428  0.63042938  0.29442991  1
  O  O314  1  0.87142240  0.61993209  0.52364169  1
  O  O315  1  0.87564312  0.62172958  0.78413261  1
  O  O316  1  0.86569359  0.87403045  0.04090380  1
  O  O317  1  0.87752799  0.87626213  0.30602327  1
  O  O318  1  0.86877072  0.87594396  0.52282612  1
  O  O319  1  0.87188963  0.87660453  0.79601599  1
