# generated using pymatgen
data_VFe(PbO3)2
_symmetry_space_group_name_H-M   'P 1'
_cell_length_a   15.39403032
_cell_length_b   15.37414757
_cell_length_c   18.55669892
_cell_angle_alpha   90.00402343
_cell_angle_beta   90.01223520
_cell_angle_gamma   89.98680374
_symmetry_Int_Tables_number   1
_chemical_formula_structural   VFe(PbO3)2
_chemical_formula_sum   'V32 Fe32 Pb64 O192'
_cell_volume   4391.81544732
_cell_formula_units_Z   32
loop_
 _symmetry_equiv_pos_site_id
 _symmetry_equiv_pos_as_xyz
  1  'x, y, z'
loop_
 _atom_site_type_symbol
 _atom_site_label
 _atom_site_symmetry_multiplicity
 _atom_site_fract_x
 _atom_site_fract_y
 _atom_site_fract_z
 _atom_site_occupancy
  V  V0  1  0.87959528  0.62286472  0.63716932  1
  V  V1  1  0.87562882  0.12424942  0.14043234  1
  V  V2  1  0.37860024  0.37400733  0.38746883  1
  V  V3  1  0.87037936  0.12634584  0.63779414  1
  V  V4  1  0.12670961  0.62462474  0.63742644  1
  V  V5  1  0.87305635  0.12437100  0.39085929  1
  V  V6  1  0.62565578  0.12956178  0.88904774  1
  V  V7  1  0.62765070  0.62601331  0.63840474  1
  V  V8  1  0.62502243  0.37511047  0.13732267  1
  V  V9  1  0.37625959  0.12415129  0.38760059  1
  V  V10  1  0.37808989  0.62694502  0.39167621  1
  V  V11  1  0.12538330  0.37421424  0.63840968  1
  V  V12  1  0.62426624  0.62017146  0.88601183  1
  V  V13  1  0.87538716  0.12376815  0.88612374  1
  V  V14  1  0.37331368  0.37383807  0.64117360  1
  V  V15  1  0.62632053  0.87394410  0.13542840  1
  V  V16  1  0.37317638  0.62565869  0.13621507  1
  V  V17  1  0.62525191  0.62667793  0.39461665  1
  V  V18  1  0.37170796  0.12498361  0.64614315  1
  V  V19  1  0.13019095  0.12126039  0.13479676  1
  V  V20  1  0.62295398  0.62625598  0.13703768  1
  V  V21  1  0.37559515  0.37879736  0.89040560  1
  V  V22  1  0.87353145  0.37455180  0.89164149  1
  V  V23  1  0.62110651  0.87367670  0.39542514  1
  V  V24  1  0.12724436  0.62275625  0.88847333  1
  V  V25  1  0.62279615  0.87896719  0.64580522  1
  V  V26  1  0.87329739  0.87739091  0.39311397  1
  V  V27  1  0.12165849  0.12555852  0.64412152  1
  V  V28  1  0.87733900  0.87636695  0.13819050  1
  V  V29  1  0.62566711  0.12351846  0.39727979  1
  V  V30  1  0.87569739  0.62381176  0.88938554  1
  V  V31  1  0.62182210  0.37590688  0.39421210  1
  Fe  Fe32  1  0.12475960  0.87557668  0.13008178  1
  Fe  Fe33  1  0.12832251  0.37338668  0.38151728  1
  Fe  Fe34  1  0.12731433  0.12336157  0.38373474  1
  Fe  Fe35  1  0.37711393  0.37540637  0.13278413  1
  Fe  Fe36  1  0.37362525  0.87490446  0.64669719  1
  Fe  Fe37  1  0.12066597  0.87464336  0.88547683  1
  Fe  Fe38  1  0.12168463  0.37735446  0.89480367  1
  Fe  Fe39  1  0.12470604  0.62699565  0.38141046  1
  Fe  Fe40  1  0.12528872  0.37470352  0.13196542  1
  Fe  Fe41  1  0.62188928  0.12450674  0.63492154  1
  Fe  Fe42  1  0.13009948  0.87688363  0.38778421  1
  Fe  Fe43  1  0.87115856  0.62714339  0.38150560  1
  Fe  Fe44  1  0.37485629  0.62137214  0.87554521  1
  Fe  Fe45  1  0.37964785  0.12418191  0.12406101  1
  Fe  Fe46  1  0.87758379  0.37318324  0.63271604  1
  Fe  Fe47  1  0.12228283  0.12895320  0.88448667  1
  Fe  Fe48  1  0.87524594  0.87509434  0.64143835  1
  Fe  Fe49  1  0.37405320  0.12800344  0.89082440  1
  Fe  Fe50  1  0.63058562  0.87361478  0.88110049  1
  Fe  Fe51  1  0.87327193  0.87332199  0.88082015  1
  Fe  Fe52  1  0.37354973  0.62212174  0.64852805  1
  Fe  Fe53  1  0.37571524  0.87366835  0.12945191  1
  Fe  Fe54  1  0.62529217  0.37351404  0.63657447  1
  Fe  Fe55  1  0.87194998  0.37368927  0.38094285  1
  Fe  Fe56  1  0.62907250  0.12370496  0.13038733  1
  Fe  Fe57  1  0.87119266  0.62744437  0.14216586  1
  Fe  Fe58  1  0.37694596  0.87256526  0.88145500  1
  Fe  Fe59  1  0.12436854  0.62780558  0.13483938  1
  Fe  Fe60  1  0.12507101  0.87478725  0.63990119  1
  Fe  Fe61  1  0.87360696  0.37371872  0.14297761  1
  Fe  Fe62  1  0.37930478  0.87735519  0.38683502  1
  Fe  Fe63  1  0.62786864  0.37756807  0.88495712  1
  Pb  Pb64  1  0.00740128  -0.00647657  -0.00591570  1
  Pb  Pb65  1  0.01458758  0.00018444  0.25560897  1
  Pb  Pb66  1  0.00656479  -0.00711473  0.50313192  1
  Pb  Pb67  1  0.00365966  -0.00661400  0.75282851  1
  Pb  Pb68  1  -0.00139657  0.26048499  0.00308890  1
  Pb  Pb69  1  0.00757477  0.25624733  0.25031941  1
  Pb  Pb70  1  -0.00213213  0.25582608  0.49278735  1
  Pb  Pb71  1  0.00832648  0.25003763  0.75345606  1
  Pb  Pb72  1  -0.00211774  0.50968727  0.01011097  1
  Pb  Pb73  1  0.00239853  0.50142458  0.24273078  1
  Pb  Pb74  1  -0.00339954  0.49792139  0.48433762  1
  Pb  Pb75  1  0.00463682  0.49345499  0.75099665  1
  Pb  Pb76  1  0.00702327  0.74878192  0.00218835  1
  Pb  Pb77  1  0.00709341  0.74058659  0.25012855  1
  Pb  Pb78  1  0.00608593  0.75147216  0.49448121  1
  Pb  Pb79  1  0.00070258  0.75868275  0.75141000  1
  Pb  Pb80  1  0.25475026  -0.00128889  -0.01212998  1
  Pb  Pb81  1  0.25603256  -0.01179741  0.24535464  1
  Pb  Pb82  1  0.24855697  -0.01130798  0.50397574  1
  Pb  Pb83  1  0.24792722  -0.00581475  0.75803826  1
  Pb  Pb84  1  0.24676541  0.25443719  -0.00326626  1
  Pb  Pb85  1  0.24680677  0.25074448  0.24253799  1
  Pb  Pb86  1  0.24994017  0.24934232  0.49451975  1
  Pb  Pb87  1  0.24660262  0.24232988  0.76013845  1
  Pb  Pb88  1  0.23989276  0.50052937  0.00373768  1
  Pb  Pb89  1  0.23903627  0.49449673  0.24519995  1
  Pb  Pb90  1  0.25058337  0.50566192  0.49506454  1
  Pb  Pb91  1  0.24202335  0.49103936  0.75459026  1
  Pb  Pb92  1  0.25267150  0.76059050  -0.00547074  1
  Pb  Pb93  1  0.23834692  0.75726229  0.24834300  1
  Pb  Pb94  1  0.25213789  0.75957482  0.50362992  1
  Pb  Pb95  1  0.25270098  0.75794495  0.75221232  1
  Pb  Pb96  1  0.49501795  -0.00067139  -0.00643366  1
  Pb  Pb97  1  0.49428505  -0.00063180  0.24190932  1
  Pb  Pb98  1  0.50084398  0.00448205  0.50575040  1
  Pb  Pb99  1  0.48773198  0.00259113  0.76008052  1
  Pb  Pb100  1  0.49416414  0.25031842  0.00104031  1
  Pb  Pb101  1  0.49738878  0.24340910  0.24143190  1
  Pb  Pb102  1  0.50767736  0.24952291  0.50571865  1
  Pb  Pb103  1  0.49704476  0.24717062  0.75278924  1
  Pb  Pb104  1  0.49524023  0.49612820  -0.00136588  1
  Pb  Pb105  1  0.50105187  0.50219372  0.24749727  1
  Pb  Pb106  1  0.49601821  0.50627026  0.50700468  1
  Pb  Pb107  1  0.50122557  0.49911209  0.74975080  1
  Pb  Pb108  1  0.49415320  0.75561607  -0.01000272  1
  Pb  Pb109  1  0.49269774  0.75625663  0.24909861  1
  Pb  Pb110  1  0.48238583  0.75036467  0.51516337  1
  Pb  Pb111  1  0.49391440  0.74904214  0.75298801  1
  Pb  Pb112  1  0.74507073  0.00409460  -0.00380767  1
  Pb  Pb113  1  0.74970486  -0.00080715  0.24893209  1
  Pb  Pb114  1  0.75407742  -0.00302711  0.50867978  1
  Pb  Pb115  1  0.74957325  -0.00885503  0.75320170  1
  Pb  Pb116  1  0.75108362  0.25266236  0.00289887  1
  Pb  Pb117  1  0.75063841  0.25327143  0.25197222  1
  Pb  Pb118  1  0.74714251  0.25866198  0.50571209  1
  Pb  Pb119  1  0.74256774  0.25606175  0.74671208  1
  Pb  Pb120  1  0.76260686  0.50106491  0.00744078  1
  Pb  Pb121  1  0.75943900  0.50087542  0.25272910  1
  Pb  Pb122  1  0.75293991  0.49271734  0.49820714  1
  Pb  Pb123  1  0.74646546  0.49415505  0.74675168  1
  Pb  Pb124  1  0.75518635  0.74487040  -0.00350560  1
  Pb  Pb125  1  0.75067986  0.74741269  0.25192103  1
  Pb  Pb126  1  0.75476429  0.75704172  0.50583872  1
  Pb  Pb127  1  0.74924651  0.75371789  0.75166678  1
  O  O128  1  0.11950474  0.00497860  0.16052311  1
  O  O129  1  0.12519182  0.00217123  0.41960084  1
  O  O130  1  0.12755001  0.00901507  0.66420103  1
  O  O131  1  0.11960531  0.00277836  0.90904183  1
  O  O132  1  0.12022392  0.23849163  0.15936524  1
  O  O133  1  0.12705723  0.24723881  0.41548792  1
  O  O134  1  0.12689998  0.24988264  0.66736784  1
  O  O135  1  0.12011387  0.25254700  0.91796764  1
  O  O136  1  0.12654475  0.50114745  0.15988640  1
  O  O137  1  0.12933729  0.50026880  0.41043673  1
  O  O138  1  0.12273139  0.49994437  0.66581679  1
  O  O139  1  0.12013354  0.50651036  0.91881888  1
  O  O140  1  0.12463434  0.75340761  0.16269337  1
  O  O141  1  0.12634619  0.75103257  0.41501219  1
  O  O142  1  0.12197701  0.73980667  0.66040325  1
  O  O143  1  0.11728597  0.73939413  0.90915611  1
  O  O144  1  0.37961036  0.00042597  0.15713553  1
  O  O145  1  0.38011773  0.00835565  0.41275904  1
  O  O146  1  0.37285378  0.00767767  0.66766875  1
  O  O147  1  0.37923445  -0.00074521  0.90751389  1
  O  O148  1  0.37898278  0.24808920  0.15977498  1
  O  O149  1  0.38007742  0.24694911  0.41354739  1
  O  O150  1  0.37175992  0.25249876  0.66910458  1
  O  O151  1  0.37891941  0.25993193  0.91253509  1
  O  O152  1  0.38058692  0.50725175  0.16402235  1
  O  O153  1  0.38050370  0.50234327  0.41558852  1
  O  O154  1  0.37292417  0.48990099  0.66539780  1
  O  O155  1  0.37598191  0.49874218  0.91350273  1
  O  O156  1  0.38116223  0.74344595  0.16135869  1
  O  O157  1  0.38109295  0.74469646  0.41517011  1
  O  O158  1  0.37616746  0.74803739  0.66930003  1
  O  O159  1  0.37667362  0.74390877  0.90558865  1
  O  O160  1  0.62677291  -0.00845839  0.15977880  1
  O  O161  1  0.62396864  -0.00476877  0.42241572  1
  O  O162  1  0.62549740  -0.00319353  0.66377912  1
  O  O163  1  0.63267870  0.00798976  0.90819390  1
  O  O164  1  0.62610572  0.25612081  0.15930762  1
  O  O165  1  0.62198911  0.24876187  0.41908980  1
  O  O166  1  0.62341410  0.24753128  0.66568780  1
  O  O167  1  0.63074257  0.24839178  0.91230634  1
  O  O168  1  0.62366712  0.49951291  0.16282480  1
  O  O169  1  0.62318287  0.50180425  0.41778408  1
  O  O170  1  0.62762763  0.50449508  0.66113553  1
  O  O171  1  0.63114722  0.50556861  0.91605359  1
  O  O172  1  0.62395619  0.75409611  0.16405151  1
  O  O173  1  0.62556722  0.75682472  0.41945660  1
  O  O174  1  0.62769760  0.74651216  0.66422099  1
  O  O175  1  0.63187801  0.73743986  0.90923510  1
  O  O176  1  0.86787502  -0.00369053  0.16563180  1
  O  O177  1  0.86968791  -0.00119598  0.42082594  1
  O  O178  1  0.87857817  0.00989368  0.66447877  1
  O  O179  1  0.87164325  0.00766684  0.90537535  1
  O  O180  1  0.86981697  0.24024994  0.16464513  1
  O  O181  1  0.87016432  0.24146520  0.40962336  1
  O  O182  1  0.87944358  0.24213955  0.66393174  1
  O  O183  1  0.87324441  0.25433732  0.91345707  1
  O  O184  1  0.86978695  0.50047993  0.16670864  1
  O  O185  1  0.86913775  0.50017309  0.40667161  1
  O  O186  1  0.87469356  0.50585872  0.66122362  1
  O  O187  1  0.87320111  0.49970774  0.91619574  1
  O  O188  1  0.86878722  0.76144202  0.16470653  1
  O  O189  1  0.86949025  0.75947683  0.41317760  1
  O  O190  1  0.87501772  0.73954472  0.66356597  1
  O  O191  1  0.87371911  0.74117801  0.90921384  1
  O  O192  1  -0.00932409  0.11993811  0.16441894  1
  O  O193  1  -0.01051117  0.12118374  0.41267680  1
  O  O194  1  0.00481473  0.12794097  0.66273451  1
  O  O195  1  -0.01138654  0.13083333  0.91328964  1
  O  O196  1  0.00082288  0.37080853  0.16210720  1
  O  O197  1  -0.00083828  0.37124388  0.40554788  1
  O  O198  1  0.00382285  0.37408438  0.66304555  1
  O  O199  1  -0.01040786  0.37853454  0.91779363  1
  O  O200  1  -0.00250431  0.62860065  0.16328702  1
  O  O201  1  -0.00310668  0.62842344  0.40940370  1
  O  O202  1  -0.00045084  0.62060851  0.66039604  1
  O  O203  1  -0.00618670  0.62006995  0.91457695  1
  O  O204  1  -0.00858687  0.87885633  0.15868313  1
  O  O205  1  -0.00850125  0.87880058  0.41099156  1
  O  O206  1  0.00013227  0.87544631  0.66558702  1
  O  O207  1  -0.00537517  0.87257190  0.91262655  1
  O  O208  1  0.24543913  0.12310969  0.14704206  1
  O  O209  1  0.26025852  0.12690781  0.40977404  1
  O  O210  1  0.25085837  0.12980356  0.66935429  1
  O  O211  1  0.24817283  0.12915149  0.91164712  1
  O  O212  1  0.25143222  0.37235154  0.16071725  1
  O  O213  1  0.25904150  0.37417333  0.41452244  1
  O  O214  1  0.25012222  0.37392081  0.66915218  1
  O  O215  1  0.25593121  0.37868549  0.91255302  1
  O  O216  1  0.25937031  0.62585668  0.15742176  1
  O  O217  1  0.26139925  0.62425157  0.40983145  1
  O  O218  1  0.24001411  0.61945568  0.66333507  1
  O  O219  1  0.24378126  0.62102632  0.90179563  1
  O  O220  1  0.25078187  0.87695013  0.15777144  1
  O  O221  1  0.25646229  0.87570599  0.41745774  1
  O  O222  1  0.24719247  0.87539761  0.67027978  1
  O  O223  1  0.24832766  0.87133893  0.90565103  1
  O  O224  1  0.50543828  0.12436627  0.16001187  1
  O  O225  1  0.49809605  0.12474359  0.41951587  1
  O  O226  1  0.49194788  0.12746897  0.66710796  1
  O  O227  1  0.51035350  0.12815632  0.90790053  1
  O  O228  1  0.50747436  0.37689736  0.16445073  1
  O  O229  1  0.49806629  0.37540394  0.42128630  1
  O  O230  1  0.49196748  0.37292278  0.66115712  1
  O  O231  1  0.49889840  0.37977033  0.91150699  1
  O  O232  1  0.50130249  0.62576920  0.16725720  1
  O  O233  1  0.50026434  0.62533297  0.42428922  1
  O  O234  1  0.51102171  0.62309448  0.66522041  1
  O  O235  1  0.50762298  0.62016363  0.90375641  1
  O  O236  1  0.50733559  0.87324685  0.15921454  1
  O  O237  1  0.50541381  0.87600959  0.41909903  1
  O  O238  1  0.50658756  0.87420004  0.66676840  1
  O  O239  1  0.50625920  0.87189456  0.90625940  1
  O  O240  1  0.75370597  0.12082068  0.16731022  1
  O  O241  1  0.75121425  0.12101762  0.41933724  1
  O  O242  1  0.75442588  0.12525820  0.65552994  1
  O  O243  1  0.75572936  0.13068246  0.91370170  1
  O  O244  1  0.73961695  0.37549616  0.16688907  1
  O  O245  1  0.74432636  0.37179045  0.41516811  1
  O  O246  1  0.75372401  0.37345053  0.66302882  1
  O  O247  1  0.75611933  0.37695316  0.91615030  1
  O  O248  1  0.74066746  0.62914162  0.16733633  1
  O  O249  1  0.74424682  0.62944814  0.41761702  1
  O  O250  1  0.74954623  0.62445683  0.66041751  1
  O  O251  1  0.75461072  0.62098099  0.91326334  1
  O  O252  1  0.74596570  0.87474080  0.16465556  1
  O  O253  1  0.74673081  0.87798917  0.42090851  1
  O  O254  1  0.74596583  0.87422906  0.66535190  1
  O  O255  1  0.75207645  0.87233065  0.91518820  1
  O  O256  1  0.11583892  0.12095345  0.04471009  1
  O  O257  1  0.12257655  0.12005850  0.28429139  1
  O  O258  1  0.12588122  0.12882683  0.55344441  1
  O  O259  1  0.12166890  0.13594780  0.78388253  1
  O  O260  1  0.12775455  0.37717138  0.03037833  1
  O  O261  1  0.13446750  0.36614687  0.28142007  1
  O  O262  1  0.12911849  0.37385996  0.54782282  1
  O  O263  1  0.12087908  0.38384584  0.79361775  1
  O  O264  1  0.12174338  0.62577228  0.03407843  1
  O  O265  1  0.12715891  0.63214370  0.28098751  1
  O  O266  1  0.12674978  0.62150209  0.54653357  1
  O  O267  1  0.11668575  0.61706993  0.79762707  1
  O  O268  1  0.11935505  0.87096953  0.02958671  1
  O  O269  1  0.13194022  0.88125530  0.28692506  1
  O  O270  1  0.12877948  0.87904271  0.53850522  1
  O  O271  1  0.11737634  0.87302858  0.78324440  1
  O  O272  1  0.38602711  0.12575845  0.02303433  1
  O  O273  1  0.38043045  0.12518506  0.29666229  1
  O  O274  1  0.37087858  0.12652912  0.55556937  1
  O  O275  1  0.37973772  0.13054138  0.78916946  1
  O  O276  1  0.38541375  0.37880474  0.03388564  1
  O  O277  1  0.38028159  0.37526386  0.29676997  1
  O  O278  1  0.36846754  0.37188708  0.55069167  1
  O  O279  1  0.37542467  0.37919430  0.79909139  1
  O  O280  1  0.37798871  0.62408575  0.04534545  1
  O  O281  1  0.38704244  0.62611885  0.30159181  1
  O  O282  1  0.38107575  0.62361311  0.54706481  1
  O  O283  1  0.38204579  0.61758480  0.77515251  1
  O  O284  1  0.37726655  0.86596247  0.02911734  1
  O  O285  1  0.38014216  0.87857010  0.28687004  1
  O  O286  1  0.37251012  0.87009435  0.54489392  1
  O  O287  1  0.37634708  0.87862869  0.77871220  1
  O  O288  1  0.63505278  0.12356560  0.03162652  1
  O  O289  1  0.62414603  0.12200630  0.30648074  1
  O  O290  1  0.61348387  0.12388086  0.53532065  1
  O  O291  1  0.62930410  0.12994572  0.79766101  1
  O  O292  1  0.62587146  0.37731884  0.04623694  1
  O  O293  1  0.61950683  0.37347099  0.30361619  1
  O  O294  1  0.62825575  0.36951992  0.53638600  1
  O  O295  1  0.63246581  0.37890192  0.78534318  1
  O  O296  1  0.62275941  0.62734023  0.04644045  1
  O  O297  1  0.62001646  0.62916021  0.30412719  1
  O  O298  1  0.62506087  0.62700595  0.54760108  1
  O  O299  1  0.62993048  0.61677337  0.79471337  1
  O  O300  1  0.62870092  0.87247665  0.04474766  1
  O  O301  1  0.62272996  0.87606105  0.30487819  1
  O  O302  1  0.62391876  0.87431834  0.55458588  1
  O  O303  1  0.63772392  0.87351666  0.78101556  1
  O  O304  1  0.87497748  0.12319241  0.04973337  1
  O  O305  1  0.86893707  0.11691260  0.30038481  1
  O  O306  1  0.87732463  0.12542826  0.54693827  1
  O  O307  1  0.87483017  0.12876676  0.79547716  1
  O  O308  1  0.86652875  0.37355285  0.04261623  1
  O  O309  1  0.86228301  0.36786016  0.28057446  1
  O  O310  1  0.87271254  0.37058439  0.53320313  1
  O  O311  1  0.87513750  0.37631434  0.80062386  1
  O  O312  1  0.86858890  0.62327451  0.04107282  1
  O  O313  1  0.86461623  0.63326019  0.28134676  1
  O  O314  1  0.87778112  0.62504059  0.54649307  1
  O  O315  1  0.87652409  0.62034628  0.79873277  1
  O  O316  1  0.87281751  0.87606291  0.04746305  1
  O  O317  1  0.86705486  0.88298865  0.30279549  1
  O  O318  1  0.86850613  0.87566897  0.54113370  1
  O  O319  1  0.87145044  0.87404750  0.77948256  1
