# generated using pymatgen
data_VFe(PbO3)2
_symmetry_space_group_name_H-M   'P 1'
_cell_length_a   15.36512400
_cell_length_b   15.37421212
_cell_length_c   18.51586350
_cell_angle_alpha   90.01058571
_cell_angle_beta   90.02625135
_cell_angle_gamma   90.00683143
_symmetry_Int_Tables_number   1
_chemical_formula_structural   VFe(PbO3)2
_chemical_formula_sum   'V32 Fe32 Pb64 O192'
_cell_volume   4373.94031538
_cell_formula_units_Z   32
loop_
 _symmetry_equiv_pos_site_id
 _symmetry_equiv_pos_as_xyz
  1  'x, y, z'
loop_
 _atom_site_type_symbol
 _atom_site_label
 _atom_site_symmetry_multiplicity
 _atom_site_fract_x
 _atom_site_fract_y
 _atom_site_fract_z
 _atom_site_occupancy
  V  V0  1  0.62462932  0.87182851  0.64318864  1
  V  V1  1  0.87522297  0.62706069  0.64204055  1
  V  V2  1  0.87489658  0.87441045  0.64111915  1
  V  V3  1  0.12636643  0.12518663  0.89115960  1
  V  V4  1  0.37364968  0.62605828  0.63798502  1
  V  V5  1  0.37633358  0.12086736  0.88922789  1
  V  V6  1  0.37211464  0.37566143  0.89299077  1
  V  V7  1  0.37537721  0.62399667  0.13932586  1
  V  V8  1  0.12562317  0.38088864  0.64293742  1
  V  V9  1  0.12942850  0.62388661  0.89092637  1
  V  V10  1  0.12927993  0.37171807  0.14027692  1
  V  V11  1  0.87462848  0.63134566  0.38800329  1
  V  V12  1  0.12348136  0.12944688  0.38957382  1
  V  V13  1  0.62712070  0.37315340  0.38874502  1
  V  V14  1  0.37253215  0.12528014  0.13997681  1
  V  V15  1  0.62505399  0.12748038  0.13652343  1
  V  V16  1  0.62282738  0.37897121  0.64077426  1
  V  V17  1  0.37813624  0.87779393  0.38481630  1
  V  V18  1  0.87461839  0.37562824  0.13311701  1
  V  V19  1  0.37341702  0.12292394  0.64005386  1
  V  V20  1  0.62649438  0.12666885  0.39396671  1
  V  V21  1  0.87368642  0.87275100  0.13343562  1
  V  V22  1  0.61969113  0.62689836  0.89225969  1
  V  V23  1  0.87468321  0.37647806  0.39328775  1
  V  V24  1  0.37460308  0.37333100  0.39016760  1
  V  V25  1  0.37461223  0.87488797  0.63541833  1
  V  V26  1  0.37389302  0.86474543  0.89625038  1
  V  V27  1  0.87637487  0.12521359  0.13740014  1
  V  V28  1  0.87619020  0.87379954  0.88747263  1
  V  V29  1  0.87232549  0.88120904  0.38703491  1
  V  V30  1  0.12590509  0.12466688  0.64053038  1
  V  V31  1  0.62417856  0.37555743  0.88765725  1
  Fe  Fe32  1  0.37667069  0.87517680  0.13254675  1
  Fe  Fe33  1  0.87436643  0.12261705  0.87731529  1
  Fe  Fe34  1  0.87423795  0.62418727  0.89545791  1
  Fe  Fe35  1  0.62740332  0.62295642  0.38930590  1
  Fe  Fe36  1  0.62207396  0.12387398  0.64630731  1
  Fe  Fe37  1  0.12381940  0.62274469  0.38390821  1
  Fe  Fe38  1  0.87624113  0.12438943  0.64627419  1
  Fe  Fe39  1  0.12626805  0.87440886  0.89220313  1
  Fe  Fe40  1  0.37598651  0.62114497  0.88760663  1
  Fe  Fe41  1  0.37522143  0.37386035  0.63388828  1
  Fe  Fe42  1  0.62847891  0.62340973  0.13306139  1
  Fe  Fe43  1  0.12312256  0.62384549  0.13770509  1
  Fe  Fe44  1  0.37542154  0.62649217  0.38033580  1
  Fe  Fe45  1  0.12189328  0.37247156  0.38340505  1
  Fe  Fe46  1  0.12329595  0.12755351  0.13050651  1
  Fe  Fe47  1  0.62392903  0.87453527  0.88590703  1
  Fe  Fe48  1  0.87456439  0.12686660  0.38881362  1
  Fe  Fe49  1  0.62003271  0.12499399  0.87835308  1
  Fe  Fe50  1  0.62498642  0.62489533  0.63368386  1
  Fe  Fe51  1  0.12773593  0.37587247  0.88079340  1
  Fe  Fe52  1  0.37770854  0.37469715  0.13485379  1
  Fe  Fe53  1  0.62644901  0.37202626  0.13395157  1
  Fe  Fe54  1  0.37406504  0.12413619  0.38498966  1
  Fe  Fe55  1  0.87360428  0.37656690  0.64664166  1
  Fe  Fe56  1  0.12269363  0.87765697  0.38426454  1
  Fe  Fe57  1  0.62605315  0.87814045  0.13787194  1
  Fe  Fe58  1  0.12482226  0.87878747  0.13367334  1
  Fe  Fe59  1  0.12381895  0.62678701  0.63320154  1
  Fe  Fe60  1  0.12483627  0.87503882  0.63589962  1
  Fe  Fe61  1  0.87710148  0.37587061  0.87866887  1
  Fe  Fe62  1  0.87652283  0.62448330  0.12568172  1
  Fe  Fe63  1  0.62759818  0.87763397  0.38267623  1
  Pb  Pb64  1  0.00678561  -0.00052673  -0.00015057  1
  Pb  Pb65  1  0.00404691  -0.00070406  0.24839172  1
  Pb  Pb66  1  0.00163745  -0.00197156  0.50042591  1
  Pb  Pb67  1  0.00133931  -0.00172730  0.75338084  1
  Pb  Pb68  1  -0.00033027  0.25084421  -0.00946044  1
  Pb  Pb69  1  0.00234703  0.25445054  0.25072605  1
  Pb  Pb70  1  -0.01231179  0.25004356  0.50812104  1
  Pb  Pb71  1  -0.00286467  0.25448064  0.75222121  1
  Pb  Pb72  1  -0.00342935  0.49944177  -0.00484099  1
  Pb  Pb73  1  0.00581868  0.50011519  0.24849536  1
  Pb  Pb74  1  0.00447684  0.50141197  0.50100286  1
  Pb  Pb75  1  -0.00966925  0.50581779  0.75883420  1
  Pb  Pb76  1  0.00396907  0.74527859  0.00131029  1
  Pb  Pb77  1  0.00856483  0.74805506  0.24425624  1
  Pb  Pb78  1  0.01182914  0.75117147  0.50006368  1
  Pb  Pb79  1  0.00483373  0.75151189  0.75261018  1
  Pb  Pb80  1  0.24737515  -0.00324352  0.00572931  1
  Pb  Pb81  1  0.24393420  -0.00652360  0.24682629  1
  Pb  Pb82  1  0.24585297  -0.00549868  0.49625478  1
  Pb  Pb83  1  0.24598531  -0.00802719  0.75297641  1
  Pb  Pb84  1  0.25200378  0.24873491  0.00158303  1
  Pb  Pb85  1  0.25556141  0.24608676  0.25209536  1
  Pb  Pb86  1  0.25422505  0.25530884  0.50100341  1
  Pb  Pb87  1  0.24513332  0.25411119  0.75210403  1
  Pb  Pb88  1  0.24734991  0.50442959  0.00463168  1
  Pb  Pb89  1  0.25051751  0.50922552  0.25381396  1
  Pb  Pb90  1  0.24666968  0.50428116  0.49505853  1
  Pb  Pb91  1  0.25101987  0.50237804  0.74963132  1
  Pb  Pb92  1  0.24074836  0.74802824  0.00898064  1
  Pb  Pb93  1  0.24794960  0.74833046  0.24561805  1
  Pb  Pb94  1  0.24411717  0.74868508  0.49185063  1
  Pb  Pb95  1  0.24518050  0.75143943  0.74913158  1
  Pb  Pb96  1  0.50236239  -0.00844707  0.00314703  1
  Pb  Pb97  1  0.50329048  -0.00455469  0.24968895  1
  Pb  Pb98  1  0.50753340  0.00564959  0.50154618  1
  Pb  Pb99  1  0.50573299  -0.00601556  0.75465299  1
  Pb  Pb100  1  0.49906171  0.25846038  0.00189626  1
  Pb  Pb101  1  0.49771778  0.24856193  0.24978725  1
  Pb  Pb102  1  0.49927736  0.25333252  0.50327945  1
  Pb  Pb103  1  0.50168889  0.24832635  0.75001808  1
  Pb  Pb104  1  0.50430689  0.49321232  0.00614193  1
  Pb  Pb105  1  0.50253200  0.50339694  0.24599800  1
  Pb  Pb106  1  0.50154399  0.50183147  0.49662697  1
  Pb  Pb107  1  0.49372967  0.50770060  0.74969073  1
  Pb  Pb108  1  0.50555346  0.75581450  0.00857632  1
  Pb  Pb109  1  0.50702833  0.75005324  0.24640829  1
  Pb  Pb110  1  0.50484327  0.74587335  0.49343039  1
  Pb  Pb111  1  0.49905668  0.75124584  0.75152264  1
  Pb  Pb112  1  0.74474898  0.00001338  -0.01045006  1
  Pb  Pb113  1  0.75489248  0.00326639  0.25024241  1
  Pb  Pb114  1  0.74836692  0.01520969  0.51117911  1
  Pb  Pb115  1  0.74795557  0.00557802  0.75327889  1
  Pb  Pb116  1  0.75003275  0.24888761  -0.01252153  1
  Pb  Pb117  1  0.75884096  0.24543064  0.25070012  1
  Pb  Pb118  1  0.75808600  0.24800688  0.51281412  1
  Pb  Pb119  1  0.75170798  0.24487531  0.74914081  1
  Pb  Pb120  1  0.74633784  0.50193563  0.00008987  1
  Pb  Pb121  1  0.74452817  0.50875987  0.24631713  1
  Pb  Pb122  1  0.75536537  0.49299807  0.50482588  1
  Pb  Pb123  1  0.75866770  0.50493996  0.75663240  1
  Pb  Pb124  1  0.74640702  0.74320114  0.00201734  1
  Pb  Pb125  1  0.74030909  0.74708592  0.24750680  1
  Pb  Pb126  1  0.74290921  0.74734908  0.49922772  1
  Pb  Pb127  1  0.74699974  0.75129961  0.75415073  1
  O  O128  1  0.12282800  0.00500634  0.16299958  1
  O  O129  1  0.12098180  0.00674650  0.41494333  1
  O  O130  1  0.12723271  0.00413833  0.66576215  1
  O  O131  1  0.13112468  0.00598006  0.91457794  1
  O  O132  1  0.12139572  0.25298437  0.16528327  1
  O  O133  1  0.12450577  0.24582756  0.41567274  1
  O  O134  1  0.12906163  0.24446646  0.66536773  1
  O  O135  1  0.13026708  0.24484835  0.91081629  1
  O  O136  1  0.12084898  0.48978844  0.16130025  1
  O  O137  1  0.12239534  0.49635996  0.41560096  1
  O  O138  1  0.12850790  0.49782758  0.65873678  1
  O  O139  1  0.12888752  0.50455400  0.91218951  1
  O  O140  1  0.12281300  0.75272612  0.16044521  1
  O  O141  1  0.12126723  0.75063635  0.40942357  1
  O  O142  1  0.12470936  0.74996564  0.66638408  1
  O  O143  1  0.12978954  0.74520492  0.91547986  1
  O  O144  1  0.37891070  0.00972921  0.16148875  1
  O  O145  1  0.37553725  -0.00326454  0.41354734  1
  O  O146  1  0.37276742  0.00053646  0.66458608  1
  O  O147  1  0.37497555  0.00648789  0.91226718  1
  O  O148  1  0.37737359  0.24507157  0.16709861  1
  O  O149  1  0.37656466  0.25170502  0.41723314  1
  O  O150  1  0.37206413  0.24202865  0.66311708  1
  O  O151  1  0.37427604  0.25255499  0.91374179  1
  O  O152  1  0.37399199  0.50269895  0.16286109  1
  O  O153  1  0.37726248  0.49118928  0.40976520  1
  O  O154  1  0.37369593  0.50508744  0.65998384  1
  O  O155  1  0.37585680  0.49331110  0.91720320  1
  O  O156  1  0.37495560  0.74373419  0.15964478  1
  O  O157  1  0.37506377  0.75916091  0.40761141  1
  O  O158  1  0.37391939  0.74842032  0.66232472  1
  O  O159  1  0.37541209  0.75016765  0.91420109  1
  O  O160  1  0.62784457  0.01079577  0.16287430  1
  O  O161  1  0.62743125  0.00551905  0.41633030  1
  O  O162  1  0.62226766  -0.00831510  0.66853639  1
  O  O163  1  0.61968132  0.00055248  0.90915427  1
  O  O164  1  0.62881586  0.24291752  0.16503416  1
  O  O165  1  0.62633562  0.24800145  0.41863004  1
  O  O166  1  0.62046146  0.25695007  0.66534543  1
  O  O167  1  0.62092914  0.25588727  0.90688231  1
  O  O168  1  0.62820529  0.49765188  0.16303049  1
  O  O169  1  0.62613881  0.49297578  0.41605883  1
  O  O170  1  0.62132791  0.49798987  0.66290040  1
  O  O171  1  0.62147346  0.49739395  0.91335655  1
  O  O172  1  0.62673983  0.75037278  0.16150787  1
  O  O173  1  0.62826564  0.75244632  0.41363581  1
  O  O174  1  0.62437330  0.75001547  0.66867501  1
  O  O175  1  0.62106821  0.74528562  0.91229816  1
  O  O176  1  0.87280194  0.00665798  0.16052877  1
  O  O177  1  0.87413731  -0.00287157  0.41174430  1
  O  O178  1  0.87514825  -0.00951534  0.66437131  1
  O  O179  1  0.87616920  -0.00502730  0.91079241  1
  O  O180  1  0.87404408  0.24704424  0.16311044  1
  O  O181  1  0.87163848  0.25534671  0.41920535  1
  O  O182  1  0.87677200  0.25096144  0.66853440  1
  O  O183  1  0.87549474  0.24916325  0.90455933  1
  O  O184  1  0.87722461  0.49078458  0.15013906  1
  O  O185  1  0.87354388  0.49620467  0.41591295  1
  O  O186  1  0.87543771  0.50803746  0.66498790  1
  O  O187  1  0.87475795  0.49672094  0.91610352  1
  O  O188  1  0.87642770  0.75791940  0.15135950  1
  O  O189  1  0.87425337  0.74726378  0.40779414  1
  O  O190  1  0.87496487  0.75061160  0.66850207  1
  O  O191  1  0.87532545  0.75673685  0.91305993  1
  O  O192  1  -0.00709422  0.12760648  0.15830745  1
  O  O193  1  0.00394330  0.12803868  0.41576042  1
  O  O194  1  0.00973861  0.12348320  0.66545600  1
  O  O195  1  0.00750761  0.12318449  0.90660980  1
  O  O196  1  -0.00571931  0.36865447  0.16260240  1
  O  O197  1  -0.00764357  0.37262552  0.41560794  1
  O  O198  1  0.00932972  0.37280584  0.66358395  1
  O  O199  1  0.00372544  0.37410134  0.90901561  1
  O  O200  1  -0.00350431  0.62369269  0.16194166  1
  O  O201  1  -0.00979317  0.62072769  0.41386344  1
  O  O202  1  -0.00531109  0.62734979  0.66590897  1
  O  O203  1  0.00946321  0.62621366  0.91233323  1
  O  O204  1  -0.00979024  0.88288624  0.16107514  1
  O  O205  1  -0.00990816  0.87526077  0.41427657  1
  O  O206  1  -0.00586193  0.87281974  0.66560259  1
  O  O207  1  -0.00396143  0.87575035  0.91345257  1
  O  O208  1  0.25485830  0.12890870  0.15895663  1
  O  O209  1  0.24336752  0.12484015  0.41388532  1
  O  O210  1  0.24969862  0.12218833  0.66663989  1
  O  O211  1  0.25546669  0.12764616  0.91691013  1
  O  O212  1  0.24559577  0.37021091  0.15886188  1
  O  O213  1  0.25491842  0.37151566  0.41027564  1
  O  O214  1  0.24728339  0.37248917  0.66505793  1
  O  O215  1  0.25451941  0.37445267  0.91451256  1
  O  O216  1  0.25293180  0.62252208  0.16373640  1
  O  O217  1  0.25175723  0.62370974  0.41233111  1
  O  O218  1  0.25465756  0.62583539  0.66173106  1
  O  O219  1  0.24860230  0.62364725  0.91824785  1
  O  O220  1  0.25249374  0.87879675  0.16119702  1
  O  O221  1  0.25458358  0.87883581  0.40885961  1
  O  O222  1  0.25407633  0.87487462  0.66422353  1
  O  O223  1  0.25752817  0.87824419  0.91754861  1
  O  O224  1  0.50498907  0.12798955  0.15998360  1
  O  O225  1  0.50577158  0.12527629  0.41590429  1
  O  O226  1  0.48956699  0.12211302  0.66432109  1
  O  O227  1  0.49221727  0.13083687  0.91103149  1
  O  O228  1  0.50137712  0.37207941  0.16728299  1
  O  O229  1  0.50029278  0.37061462  0.41451224  1
  O  O230  1  0.50149778  0.37592403  0.66574426  1
  O  O231  1  0.49877539  0.37501163  0.91472631  1
  O  O232  1  0.49579791  0.62271610  0.15904518  1
  O  O233  1  0.49911626  0.62423944  0.41254628  1
  O  O234  1  0.49383218  0.62637791  0.66238630  1
  O  O235  1  0.50358799  0.62188753  0.91725415  1
  O  O236  1  0.49967539  0.87834292  0.16680769  1
  O  O237  1  0.49655030  0.87865926  0.40953174  1
  O  O238  1  0.49659337  0.87214997  0.66630200  1
  O  O239  1  0.49302102  0.87591008  0.91640900  1
  O  O240  1  0.75077679  0.12708694  0.16297544  1
  O  O241  1  0.74555164  0.12655044  0.42073760  1
  O  O242  1  0.74846204  0.12218680  0.66765815  1
  O  O243  1  0.74723788  0.12479345  0.90467083  1
  O  O244  1  0.75927687  0.36901684  0.15902546  1
  O  O245  1  0.75179180  0.37418704  0.41974528  1
  O  O246  1  0.73968505  0.37727443  0.66620570  1
  O  O247  1  0.74256586  0.37606497  0.90533581  1
  O  O248  1  0.75628766  0.62466981  0.16235705  1
  O  O249  1  0.75957183  0.62129273  0.41733651  1
  O  O250  1  0.75508883  0.62759371  0.66492059  1
  O  O251  1  0.74032773  0.62357298  0.91296252  1
  O  O252  1  0.75807081  0.88190669  0.16073916  1
  O  O253  1  0.75783400  0.87361771  0.41377103  1
  O  O254  1  0.75369918  0.87074978  0.66707673  1
  O  O255  1  0.75487508  0.87505563  0.90918162  1
  O  O256  1  0.12548241  0.12634110  0.03124711  1
  O  O257  1  0.12295533  0.12925196  0.29818999  1
  O  O258  1  0.12641767  0.12462843  0.54974247  1
  O  O259  1  0.13254914  0.12248305  0.79983614  1
  O  O260  1  0.12343505  0.37016501  0.04900896  1
  O  O261  1  0.11595724  0.37320201  0.28416764  1
  O  O262  1  0.12683252  0.37255473  0.55166037  1
  O  O263  1  0.13201632  0.37402634  0.78140965  1
  O  O264  1  0.13156787  0.62600061  0.03718004  1
  O  O265  1  0.12201955  0.61927053  0.28247292  1
  O  O266  1  0.12098033  0.62768956  0.53324402  1
  O  O267  1  0.13262714  0.62589218  0.79918167  1
  O  O268  1  0.12520971  0.88048782  0.03127840  1
  O  O269  1  0.11896226  0.88494317  0.28438776  1
  O  O270  1  0.11961476  0.87775240  0.53559990  1
  O  O271  1  0.12877309  0.87565394  0.79166806  1
  O  O272  1  0.37619803  0.12883561  0.04869386  1
  O  O273  1  0.37365269  0.13154097  0.28612678  1
  O  O274  1  0.37187121  0.12197744  0.54890221  1
  O  O275  1  0.37274393  0.12282786  0.79822578  1
  O  O276  1  0.38155219  0.36965402  0.03543948  1
  O  O277  1  0.37661666  0.36806084  0.29896560  1
  O  O278  1  0.37591300  0.36842668  0.53495959  1
  O  O279  1  0.37412190  0.37648783  0.80153458  1
  O  O280  1  0.37151432  0.62194977  0.04780505  1
  O  O281  1  0.36997104  0.62098522  0.28119049  1
  O  O282  1  0.37444135  0.62744080  0.54696079  1
  O  O283  1  0.37524808  0.61769713  0.78854513  1
  O  O284  1  0.38223940  0.87808914  0.03247574  1
  O  O285  1  0.37788072  0.88120193  0.29357589  1
  O  O286  1  0.37546951  0.87559374  0.54483305  1
  O  O287  1  0.37406078  0.87178888  0.80474352  1
  O  O288  1  0.62765871  0.12835507  0.04551767  1
  O  O289  1  0.62917895  0.12708739  0.30307031  1
  O  O290  1  0.62426762  0.11501601  0.54519353  1
  O  O291  1  0.61595174  0.12429949  0.77701176  1
  O  O292  1  0.62086079  0.37249307  0.03379661  1
  O  O293  1  0.62940537  0.37203923  0.29804770  1
  O  O294  1  0.62222075  0.37700884  0.54926816  1
  O  O295  1  0.61758520  0.37959866  0.79716475  1
  O  O296  1  0.63146343  0.62425057  0.03287839  1
  O  O297  1  0.63636832  0.62413755  0.28859282  1
  O  O298  1  0.62501945  0.63045859  0.53424158  1
  O  O299  1  0.61856423  0.62443087  0.80059159  1
  O  O300  1  0.61655169  0.87699727  0.03647166  1
  O  O301  1  0.62703429  0.87843251  0.28280176  1
  O  O302  1  0.62628193  0.87289074  0.55167658  1
  O  O303  1  0.61803492  0.86839894  0.78583845  1
  O  O304  1  0.87280551  0.12615898  0.04643338  1
  O  O305  1  0.86689993  0.12745387  0.28951142  1
  O  O306  1  0.87142704  0.12934459  0.54356064  1
  O  O307  1  0.87882616  0.11699141  0.77676575  1
  O  O308  1  0.87656628  0.36713508  0.04192835  1
  O  O309  1  0.87172537  0.37574786  0.30235207  1
  O  O310  1  0.87013651  0.37362811  0.54526960  1
  O  O311  1  0.87746985  0.38694397  0.77665396  1
  O  O312  1  0.87404307  0.62766372  0.02387553  1
  O  O313  1  0.87357680  0.62512009  0.29716815  1
  O  O314  1  0.87626398  0.62881538  0.55122445  1
  O  O315  1  0.87560095  0.61653448  0.79395663  1
  O  O316  1  0.87408055  0.87995882  0.04253996  1
  O  O317  1  0.87245743  0.87974423  0.29576237  1
  O  O318  1  0.87385501  0.87213541  0.55053723  1
  O  O319  1  0.87847287  0.87336891  0.79593350  1
