# generated using pymatgen
data_VFe(PbO3)2
_symmetry_space_group_name_H-M   'P 1'
_cell_length_a   15.39513461
_cell_length_b   15.40787894
_cell_length_c   18.51834676
_cell_angle_alpha   90.03017747
_cell_angle_beta   90.05648431
_cell_angle_gamma   89.98790066
_symmetry_Int_Tables_number   1
_chemical_formula_structural   VFe(PbO3)2
_chemical_formula_sum   'V32 Fe32 Pb64 O192'
_cell_volume   4392.66697688
_cell_formula_units_Z   32
loop_
 _symmetry_equiv_pos_site_id
 _symmetry_equiv_pos_as_xyz
  1  'x, y, z'
loop_
 _atom_site_type_symbol
 _atom_site_label
 _atom_site_symmetry_multiplicity
 _atom_site_fract_x
 _atom_site_fract_y
 _atom_site_fract_z
 _atom_site_occupancy
  V  V0  1  0.62757690  0.87522388  0.38671584  1
  V  V1  1  0.37488372  0.37497530  0.89450591  1
  V  V2  1  0.63588045  0.87940779  0.13675527  1
  V  V3  1  0.37633823  0.12791600  0.88832049  1
  V  V4  1  0.87948624  0.63840547  0.13741682  1
  V  V5  1  0.37068246  0.12431096  0.14515552  1
  V  V6  1  0.37470304  0.86954187  0.88867737  1
  V  V7  1  0.11920172  0.12300087  0.39666625  1
  V  V8  1  0.12654489  0.12252753  0.14318380  1
  V  V9  1  0.87182105  0.36689915  0.38634352  1
  V  V10  1  0.62608884  0.12212578  0.38802260  1
  V  V11  1  0.12558598  0.62599080  0.88933901  1
  V  V12  1  0.87450321  0.12958304  0.88742456  1
  V  V13  1  0.87317777  0.62175280  0.38811339  1
  V  V14  1  0.37088564  0.12492638  0.39219390  1
  V  V15  1  0.62500814  0.12523764  0.89450845  1
  V  V16  1  0.12575497  0.37674164  0.88848927  1
  V  V17  1  0.62494941  0.37657900  0.89828330  1
  V  V18  1  0.37598078  0.37821901  0.63218680  1
  V  V19  1  0.87887981  0.38262684  0.13861004  1
  V  V20  1  0.87783928  0.12316806  0.14083794  1
  V  V21  1  0.87585245  0.87435560  0.39836598  1
  V  V22  1  0.37317096  0.37732876  0.15562901  1
  V  V23  1  0.87254740  0.62165457  0.89066097  1
  V  V24  1  0.62244887  0.37768758  0.63619733  1
  V  V25  1  0.62169426  0.87237876  0.63751039  1
  V  V26  1  0.12459327  0.87693938  0.14401089  1
  V  V27  1  0.37819852  0.62696302  0.63286247  1
  V  V28  1  0.87369038  0.37613260  0.63519367  1
  V  V29  1  0.37457524  0.87767285  0.14369899  1
  V  V30  1  0.87530564  0.87377594  0.88842544  1
  V  V31  1  0.12334301  0.37142037  0.15139696  1
  Fe  Fe32  1  0.12648267  0.12957787  0.63069896  1
  Fe  Fe33  1  0.37148596  0.62809168  0.14980098  1
  Fe  Fe34  1  0.62441706  0.12900362  0.63451897  1
  Fe  Fe35  1  0.12758974  0.87192259  0.62595836  1
  Fe  Fe36  1  0.12478139  0.87621867  0.39913154  1
  Fe  Fe37  1  0.62641851  0.36985795  0.15037898  1
  Fe  Fe38  1  0.12640564  0.12727357  0.87983169  1
  Fe  Fe39  1  0.12285415  0.62639113  0.38619750  1
  Fe  Fe40  1  0.37875754  0.87682385  0.39438990  1
  Fe  Fe41  1  0.37897766  0.87404297  0.62428978  1
  Fe  Fe42  1  0.87349229  0.12080159  0.39837013  1
  Fe  Fe43  1  0.12864393  0.87465187  0.88021668  1
  Fe  Fe44  1  0.37771439  0.37336419  0.37423936  1
  Fe  Fe45  1  0.62299750  0.11953632  0.13644394  1
  Fe  Fe46  1  0.62892028  0.37307852  0.37435144  1
  Fe  Fe47  1  0.37739477  0.62566394  0.37395117  1
  Fe  Fe48  1  0.12224583  0.37255057  0.38764744  1
  Fe  Fe49  1  0.37972960  0.12696699  0.62922495  1
  Fe  Fe50  1  0.87347099  0.37714974  0.88883092  1
  Fe  Fe51  1  0.87071744  0.62461821  0.63163620  1
  Fe  Fe52  1  0.62905261  0.62763680  0.37573464  1
  Fe  Fe53  1  0.62688814  0.62821331  0.14599528  1
  Fe  Fe54  1  0.12195623  0.62577421  0.14956319  1
  Fe  Fe55  1  0.88147186  0.88007103  0.13053654  1
  Fe  Fe56  1  0.12522421  0.61980716  0.62609001  1
  Fe  Fe57  1  0.37311776  0.62074625  0.89001980  1
  Fe  Fe58  1  0.12837448  0.37862328  0.62579727  1
  Fe  Fe59  1  0.62416712  0.62123891  0.63325731  1
  Fe  Fe60  1  0.87055143  0.12514007  0.62845159  1
  Fe  Fe61  1  0.62238141  0.62535804  0.89125862  1
  Fe  Fe62  1  0.62189432  0.87484778  0.88668046  1
  Fe  Fe63  1  0.87208856  0.87255233  0.62992039  1
  Pb  Pb64  1  0.00076330  -0.00264903  -0.00743113  1
  Pb  Pb65  1  0.00324310  -0.00006363  0.25843469  1
  Pb  Pb66  1  0.00578993  -0.00165170  0.51012859  1
  Pb  Pb67  1  0.00602521  -0.00285160  0.73398154  1
  Pb  Pb68  1  0.00107019  0.25280859  -0.00351539  1
  Pb  Pb69  1  -0.00048008  0.24689633  0.25768630  1
  Pb  Pb70  1  0.00870703  0.25054631  0.50606231  1
  Pb  Pb71  1  0.00390144  0.24638143  0.74150485  1
  Pb  Pb72  1  0.00650133  0.50628440  0.00174366  1
  Pb  Pb73  1  0.00938150  0.50045662  0.26227716  1
  Pb  Pb74  1  0.00672565  0.50201733  0.49831557  1
  Pb  Pb75  1  0.00104632  0.50041777  0.74095971  1
  Pb  Pb76  1  0.00029961  0.75334962  -0.00355986  1
  Pb  Pb77  1  0.01533210  0.76008791  0.26413300  1
  Pb  Pb78  1  0.00717817  0.74631820  0.50413218  1
  Pb  Pb79  1  0.00232388  0.75107181  0.73549071  1
  Pb  Pb80  1  0.24897301  0.00158927  -0.00834833  1
  Pb  Pb81  1  0.24988897  -0.01288109  0.26292836  1
  Pb  Pb82  1  0.25384329  -0.00680415  0.50551202  1
  Pb  Pb83  1  0.24649000  -0.00145566  0.73487199  1
  Pb  Pb84  1  0.25018654  0.25350874  -0.00039475  1
  Pb  Pb85  1  0.24683675  0.25469526  0.26063577  1
  Pb  Pb86  1  0.24867393  0.25003272  0.49760860  1
  Pb  Pb87  1  0.24400556  0.24416399  0.74237592  1
  Pb  Pb88  1  0.24922629  0.51000332  0.01277002  1
  Pb  Pb89  1  0.24612673  0.50879292  0.25915443  1
  Pb  Pb90  1  0.24893870  0.49961432  0.48125673  1
  Pb  Pb91  1  0.25736487  0.50465866  0.74465752  1
  Pb  Pb92  1  0.24713755  0.73558881  0.00949605  1
  Pb  Pb93  1  0.24954180  0.74808229  0.25910815  1
  Pb  Pb94  1  0.25224290  0.74992956  0.48896658  1
  Pb  Pb95  1  0.24411113  0.75683521  0.73947673  1
  Pb  Pb96  1  0.50062994  0.00467467  -0.00063825  1
  Pb  Pb97  1  0.49375829  -0.00718853  0.25547995  1
  Pb  Pb98  1  0.49993993  0.00633142  0.50328525  1
  Pb  Pb99  1  0.49909664  -0.00326824  0.74312442  1
  Pb  Pb100  1  0.50716743  0.25238135  0.01087686  1
  Pb  Pb101  1  0.50172217  0.25115694  0.25347625  1
  Pb  Pb102  1  0.50250495  0.24577282  0.49439750  1
  Pb  Pb103  1  0.49950232  0.25154952  0.74568763  1
  Pb  Pb104  1  0.49699049  0.50724402  0.01051845  1
  Pb  Pb105  1  0.50435253  0.50974817  0.24959450  1
  Pb  Pb106  1  0.50643230  0.50092669  0.47795538  1
  Pb  Pb107  1  0.49952016  0.51116145  0.75553934  1
  Pb  Pb108  1  0.49963337  0.74129684  0.00387490  1
  Pb  Pb109  1  0.49477593  0.75025317  0.25151321  1
  Pb  Pb110  1  0.50050959  0.74500705  0.48991366  1
  Pb  Pb111  1  0.50839024  0.74646532  0.75330931  1
  Pb  Pb112  1  0.75586014  -0.00239099  -0.00302397  1
  Pb  Pb113  1  0.76635575  0.00823112  0.25818564  1
  Pb  Pb114  1  0.75332541  -0.00179351  0.50646160  1
  Pb  Pb115  1  0.74938443  0.00027972  0.74229259  1
  Pb  Pb116  1  0.73993547  0.25081775  0.01016104  1
  Pb  Pb117  1  0.75040856  0.24427996  0.24967675  1
  Pb  Pb118  1  0.74614998  0.24065303  0.50032409  1
  Pb  Pb119  1  0.75564074  0.25628854  0.74913857  1
  Pb  Pb120  1  0.73299389  0.49878721  0.01479607  1
  Pb  Pb121  1  0.74332517  0.49960917  0.25036552  1
  Pb  Pb122  1  0.74545929  0.50990732  0.49565312  1
  Pb  Pb123  1  0.75119200  0.49988041  0.74972771  1
  Pb  Pb124  1  0.74386433  0.74759141  -0.00079613  1
  Pb  Pb125  1  0.75094529  0.74727336  0.25105203  1
  Pb  Pb126  1  0.75576508  0.74518570  0.50451565  1
  Pb  Pb127  1  0.74490408  0.74661550  0.74635746  1
  O  O128  1  0.12623189  -0.00266954  0.17077241  1
  O  O129  1  0.12516503  0.00750363  0.42041105  1
  O  O130  1  0.12724675  0.00116236  0.65101707  1
  O  O131  1  0.12717109  0.00156227  0.90892776  1
  O  O132  1  0.12249960  0.24465621  0.17343861  1
  O  O133  1  0.12271135  0.24380520  0.41329367  1
  O  O134  1  0.12552440  0.25778655  0.66042126  1
  O  O135  1  0.12399348  0.25385192  0.91569640  1
  O  O136  1  0.11949629  0.49356378  0.17280079  1
  O  O137  1  0.11670462  0.49936750  0.40496938  1
  O  O138  1  0.12546136  0.49781042  0.66227328  1
  O  O139  1  0.12501957  0.50012135  0.91994525  1
  O  O140  1  0.12354647  0.75906992  0.16891711  1
  O  O141  1  0.12001984  0.74926771  0.41321226  1
  O  O142  1  0.12914244  0.74445216  0.65445898  1
  O  O143  1  0.12662950  0.74716741  0.91365819  1
  O  O144  1  0.36782511  -0.00138900  0.17177952  1
  O  O145  1  0.37968206  0.00943059  0.41712886  1
  O  O146  1  0.38034031  -0.00026244  0.65507607  1
  O  O147  1  0.37571452  0.00420445  0.91333347  1
  O  O148  1  0.36981099  0.23794526  0.16888339  1
  O  O149  1  0.37807565  0.24304816  0.40895669  1
  O  O150  1  0.38143278  0.26278629  0.65891900  1
  O  O151  1  0.37676137  0.25247742  0.92335020  1
  O  O152  1  0.37172457  0.49340183  0.16688822  1
  O  O153  1  0.37809269  0.49889146  0.39779328  1
  O  O154  1  0.38057075  0.49530306  0.66317924  1
  O  O155  1  0.37496887  0.49226537  0.92491696  1
  O  O156  1  0.36921491  0.76155877  0.16591613  1
  O  O157  1  0.37922517  0.74891547  0.40814876  1
  O  O158  1  0.37776176  0.74111813  0.65101653  1
  O  O159  1  0.37472355  0.75475756  0.91216372  1
  O  O160  1  0.62004253  -0.00813065  0.16483874  1
  O  O161  1  0.62531826  0.00179596  0.41521368  1
  O  O162  1  0.62063262  -0.00559829  0.65912796  1
  O  O163  1  0.62313207  0.00309673  0.91532907  1
  O  O164  1  0.62555066  0.24049654  0.16807049  1
  O  O165  1  0.62868713  0.24211435  0.40443254  1
  O  O166  1  0.62533559  0.26121858  0.66460158  1
  O  O167  1  0.62470240  0.25334160  0.92269043  1
  O  O168  1  0.63100174  0.49870589  0.16444909  1
  O  O169  1  0.63125042  0.50026430  0.39721707  1
  O  O170  1  0.62486675  0.49223338  0.66453064  1
  O  O171  1  0.62391934  0.49544876  0.92232710  1
  O  O172  1  0.62509978  0.76534353  0.16573587  1
  O  O173  1  0.62784006  0.75817586  0.40419154  1
  O  O174  1  0.62135123  0.75178041  0.66159575  1
  O  O175  1  0.62227602  0.75121249  0.92080694  1
  O  O176  1  0.88025040  0.00313865  0.16827861  1
  O  O177  1  0.87029761  -0.00749844  0.42156641  1
  O  O178  1  0.87118406  -0.00132644  0.65944398  1
  O  O179  1  0.87489852  0.00546947  0.91144500  1
  O  O180  1  0.87962095  0.23770147  0.16445811  1
  O  O181  1  0.87121601  0.25276783  0.40768052  1
  O  O182  1  0.86840473  0.25804052  0.65940523  1
  O  O183  1  0.87368366  0.24551100  0.91510659  1
  O  O184  1  0.87621599  0.49562087  0.15252976  1
  O  O185  1  0.87133866  0.50437004  0.40330248  1
  O  O186  1  0.86961158  0.49324183  0.66328452  1
  O  O187  1  0.87713580  0.50713663  0.91693258  1
  O  O188  1  0.87670178  0.75266249  0.15654174  1
  O  O189  1  0.86896144  0.75396004  0.41405000  1
  O  O190  1  0.87064005  0.74977726  0.66346526  1
  O  O191  1  0.87830046  0.74598629  0.91383910  1
  O  O192  1  0.00226751  0.12001416  0.16906176  1
  O  O193  1  0.00267751  0.12318715  0.41663969  1
  O  O194  1  -0.00344073  0.12987480  0.65604618  1
  O  O195  1  -0.00670130  0.12696213  0.90844867  1
  O  O196  1  -0.00794571  0.36732818  0.17146363  1
  O  O197  1  -0.01331325  0.37530731  0.41367871  1
  O  O198  1  -0.00871731  0.37617373  0.65415364  1
  O  O199  1  0.00261053  0.37613835  0.91789100  1
  O  O200  1  -0.01072312  0.62299343  0.16800222  1
  O  O201  1  -0.01157566  0.62967593  0.41117082  1
  O  O202  1  -0.00202027  0.62098666  0.65877721  1
  O  O203  1  -0.00011693  0.62473950  0.91701286  1
  O  O204  1  0.00661427  0.87890833  0.16556534  1
  O  O205  1  -0.00872252  0.87705022  0.41734524  1
  O  O206  1  0.00071582  0.87304160  0.65309062  1
  O  O207  1  -0.00108928  0.87576455  0.91109583  1
  O  O208  1  0.24876423  0.12053583  0.17326966  1
  O  O209  1  0.25183211  0.12607426  0.41191005  1
  O  O210  1  0.25495723  0.13164207  0.65761058  1
  O  O211  1  0.25472285  0.13026318  0.91303844  1
  O  O212  1  0.24755130  0.36935181  0.17418885  1
  O  O213  1  0.25112640  0.37067326  0.40314594  1
  O  O214  1  0.25969543  0.37889729  0.65237820  1
  O  O215  1  0.24948971  0.37309577  0.91979379  1
  O  O216  1  0.24549367  0.62537896  0.17472581  1
  O  O217  1  0.25078474  0.62424448  0.39929798  1
  O  O218  1  0.26079896  0.61609538  0.65611070  1
  O  O219  1  0.24713558  0.62233984  0.92113315  1
  O  O220  1  0.24633036  0.87766504  0.17097802  1
  O  O221  1  0.25190281  0.88016710  0.41335088  1
  O  O222  1  0.25461751  0.87243570  0.65462362  1
  O  O223  1  0.25853053  0.87849237  0.91357676  1
  O  O224  1  0.48907416  0.11775419  0.16522704  1
  O  O225  1  0.50459051  0.12493961  0.40950452  1
  O  O226  1  0.50205767  0.13051425  0.66837228  1
  O  O227  1  0.49929360  0.12903307  0.92055285  1
  O  O228  1  0.49268839  0.36731992  0.16499393  1
  O  O229  1  0.50428007  0.37034257  0.40025012  1
  O  O230  1  0.50355062  0.37719865  0.66028703  1
  O  O231  1  0.50315965  0.37444192  0.92363638  1
  O  O232  1  0.50052925  0.62804232  0.16280304  1
  O  O233  1  0.50500567  0.62707749  0.39976835  1
  O  O234  1  0.49508278  0.61882671  0.66269112  1
  O  O235  1  0.49697161  0.62187860  0.92397505  1
  O  O236  1  0.49139162  0.87873722  0.16127589  1
  O  O237  1  0.51164400  0.87985798  0.41251382  1
  O  O238  1  0.50334759  0.87154330  0.66190974  1
  O  O239  1  0.49044498  0.87795061  0.91860973  1
  O  O240  1  0.75771403  0.11839110  0.16126725  1
  O  O241  1  0.74279034  0.12130122  0.41447813  1
  O  O242  1  0.74732674  0.12663792  0.66532479  1
  O  O243  1  0.75331254  0.12578329  0.91617143  1
  O  O244  1  0.76582412  0.36538569  0.16490643  1
  O  O245  1  0.75615079  0.37579387  0.41120836  1
  O  O246  1  0.74653962  0.37691443  0.66220969  1
  O  O247  1  0.74362973  0.37501514  0.92035547  1
  O  O248  1  0.76441540  0.62722621  0.16620217  1
  O  O249  1  0.75408555  0.62992016  0.41028820  1
  O  O250  1  0.74686868  0.62210693  0.66708950  1
  O  O251  1  0.75611778  0.62636672  0.91323554  1
  O  O252  1  0.75032343  0.87937897  0.15212790  1
  O  O253  1  0.74386781  0.87883162  0.41523786  1
  O  O254  1  0.73967357  0.87368237  0.66274709  1
  O  O255  1  0.75395933  0.87596460  0.91356298  1
  O  O256  1  0.12632103  0.12428621  0.05243656  1
  O  O257  1  0.12061230  0.11971816  0.30482803  1
  O  O258  1  0.12564116  0.13628322  0.52960940  1
  O  O259  1  0.12781323  0.13532750  0.78044597  1
  O  O260  1  0.12078421  0.37040331  0.06024649  1
  O  O261  1  0.11163252  0.36679707  0.28622069  1
  O  O262  1  0.12025703  0.37455655  0.52505712  1
  O  O263  1  0.12680176  0.37844900  0.79772850  1
  O  O264  1  0.12912488  0.62439777  0.04811725  1
  O  O265  1  0.11332141  0.62816426  0.28207986  1
  O  O266  1  0.11982820  0.61800053  0.52535709  1
  O  O267  1  0.12711065  0.62206654  0.79858800  1
  O  O268  1  0.12834885  0.87773507  0.05322457  1
  O  O269  1  0.11593299  0.87778348  0.29631481  1
  O  O270  1  0.12411426  0.87609213  0.52395981  1
  O  O271  1  0.13371772  0.87118346  0.78104246  1
  O  O272  1  0.36722023  0.12204105  0.05433400  1
  O  O273  1  0.37372149  0.11968274  0.30088939  1
  O  O274  1  0.38615850  0.13236788  0.52911991  1
  O  O275  1  0.38044475  0.13327346  0.79774329  1
  O  O276  1  0.36524796  0.36682954  0.06455650  1
  O  O277  1  0.37441373  0.36091574  0.27248241  1
  O  O278  1  0.38047741  0.38011903  0.54152317  1
  O  O279  1  0.37601697  0.37574505  0.80386578  1
  O  O280  1  0.36215766  0.62523603  0.04684390  1
  O  O281  1  0.37900161  0.63060072  0.27165759  1
  O  O282  1  0.38129471  0.61950069  0.54202375  1
  O  O283  1  0.37657325  0.61206610  0.79065998  1
  O  O284  1  0.36810368  0.88133019  0.05326691  1
  O  O285  1  0.37886832  0.88430263  0.29208040  1
  O  O286  1  0.38103855  0.87609465  0.52365523  1
  O  O287  1  0.37633240  0.87230630  0.79768264  1
  O  O288  1  0.62233870  0.12797152  0.03644842  1
  O  O289  1  0.62818773  0.11537185  0.29661507  1
  O  O290  1  0.62169207  0.13496231  0.53465132  1
  O  O291  1  0.62392598  0.13108791  0.80400450  1
  O  O292  1  0.63272197  0.36939381  0.04778036  1
  O  O293  1  0.63384573  0.36892240  0.27267506  1
  O  O294  1  0.62444042  0.37719940  0.54519712  1
  O  O295  1  0.62287111  0.37596736  0.80774331  1
  O  O296  1  0.63421190  0.62701614  0.04418542  1
  O  O297  1  0.63757516  0.63218261  0.27314583  1
  O  O298  1  0.62793108  0.61868900  0.53358585  1
  O  O299  1  0.61351485  0.62580717  0.79127404  1
  O  O300  1  0.62444461  0.87816617  0.04565954  1
  O  O301  1  0.62909432  0.88138860  0.29545469  1
  O  O302  1  0.62181417  0.87126501  0.54663649  1
  O  O303  1  0.61561890  0.86861654  0.78796534  1
  O  O304  1  0.88117106  0.12149385  0.04987895  1
  O  O305  1  0.87089084  0.11250388  0.29694419  1
  O  O306  1  0.86386707  0.12718753  0.52676956  1
  O  O307  1  0.86928794  0.13109908  0.79694116  1
  O  O308  1  0.88229491  0.37021888  0.04757799  1
  O  O309  1  0.87378744  0.36960945  0.29472420  1
  O  O310  1  0.86938330  0.37744906  0.54458710  1
  O  O311  1  0.86798420  0.37510312  0.79034201  1
  O  O312  1  0.88026458  0.63153246  0.04614126  1
  O  O313  1  0.87237461  0.63122761  0.29691153  1
  O  O314  1  0.86251592  0.62370543  0.53138212  1
  O  O315  1  0.87520540  0.62025133  0.80004264  1
  O  O316  1  0.88389877  0.88377600  0.03145693  1
  O  O317  1  0.87238295  0.87788567  0.30601343  1
  O  O318  1  0.86191975  0.87056182  0.53006123  1
  O  O319  1  0.87449688  0.87451654  0.79771845  1
