# generated using pymatgen
data_VFe(PbO3)2
_symmetry_space_group_name_H-M   'P 1'
_cell_length_a   15.37483067
_cell_length_b   15.39264292
_cell_length_c   18.51132005
_cell_angle_alpha   89.97159510
_cell_angle_beta   90.00868172
_cell_angle_gamma   90.00136872
_symmetry_Int_Tables_number   1
_chemical_formula_structural   VFe(PbO3)2
_chemical_formula_sum   'V32 Fe32 Pb64 O192'
_cell_volume   4380.87505458
_cell_formula_units_Z   32
loop_
 _symmetry_equiv_pos_site_id
 _symmetry_equiv_pos_as_xyz
  1  'x, y, z'
loop_
 _atom_site_type_symbol
 _atom_site_label
 _atom_site_symmetry_multiplicity
 _atom_site_fract_x
 _atom_site_fract_y
 _atom_site_fract_z
 _atom_site_occupancy
  V  V0  1  0.62235309  0.37419522  0.63631335  1
  V  V1  1  0.87508343  0.12493571  0.88536715  1
  V  V2  1  0.12393742  0.12968547  0.14162432  1
  V  V3  1  0.87645016  0.12298879  0.39177304  1
  V  V4  1  0.37698824  0.37467792  0.39086780  1
  V  V5  1  0.37590318  0.37419429  0.64379220  1
  V  V6  1  0.87427109  0.12855657  0.14457069  1
  V  V7  1  0.87249726  0.12290840  0.63577585  1
  V  V8  1  0.87459548  0.87490713  0.38778702  1
  V  V9  1  0.62336661  0.37403555  0.14286854  1
  V  V10  1  0.37552441  0.12072834  0.64038942  1
  V  V11  1  0.87826420  0.62765916  0.39459165  1
  V  V12  1  0.62518334  0.62438176  0.38737322  1
  V  V13  1  0.12383547  0.37241807  0.14020720  1
  V  V14  1  0.62833014  0.12502711  0.88834680  1
  V  V15  1  0.37439008  0.86775054  0.64148736  1
  V  V16  1  0.62548637  0.37545431  0.88818808  1
  V  V17  1  0.87665469  0.87559335  0.89041601  1
  V  V18  1  0.36887146  0.36866252  0.13900521  1
  V  V19  1  0.12588199  0.37547145  0.39481941  1
  V  V20  1  0.87600842  0.62602787  0.88982420  1
  V  V21  1  0.37720570  0.62164058  0.63976771  1
  V  V22  1  0.87714660  0.37280956  0.14554252  1
  V  V23  1  0.62452088  0.12834868  0.14036221  1
  V  V24  1  0.12325593  0.12309186  0.88606312  1
  V  V25  1  0.87371391  0.87236195  0.63821049  1
  V  V26  1  0.87378555  0.37595217  0.88310417  1
  V  V27  1  0.62549884  0.87410463  0.38657978  1
  V  V28  1  0.12462924  0.87088087  0.89682820  1
  V  V29  1  0.12611454  0.87404393  0.38756599  1
  V  V30  1  0.37330564  0.11685194  0.38852871  1
  V  V31  1  0.37499356  0.62389475  0.89037728  1
  Fe  Fe32  1  0.12691818  0.87771227  0.63599811  1
  Fe  Fe33  1  0.87123941  0.62732277  0.63027032  1
  Fe  Fe34  1  0.12616259  0.62916742  0.63139625  1
  Fe  Fe35  1  0.37618481  0.87242998  0.37788446  1
  Fe  Fe36  1  0.37502242  0.62009882  0.13682824  1
  Fe  Fe37  1  0.87729143  0.87697690  0.13511195  1
  Fe  Fe38  1  0.87163850  0.37645577  0.62758345  1
  Fe  Fe39  1  0.12493138  0.62437684  0.89105312  1
  Fe  Fe40  1  0.62856030  0.87622691  0.12711671  1
  Fe  Fe41  1  0.87592511  0.62085432  0.13313162  1
  Fe  Fe42  1  0.37425900  0.13227446  0.13133027  1
  Fe  Fe43  1  0.62805104  0.62161354  0.12812455  1
  Fe  Fe44  1  0.37349307  0.37631136  0.87930944  1
  Fe  Fe45  1  0.12581894  0.62457994  0.39104739  1
  Fe  Fe46  1  0.87401832  0.37604397  0.39582197  1
  Fe  Fe47  1  0.37535618  0.62603878  0.38119032  1
  Fe  Fe48  1  0.12589057  0.37455078  0.63810651  1
  Fe  Fe49  1  0.37396998  0.87837690  0.13367590  1
  Fe  Fe50  1  0.62168668  0.87746274  0.64022138  1
  Fe  Fe51  1  0.37488748  0.12531164  0.89027365  1
  Fe  Fe52  1  0.37353683  0.87548840  0.89244863  1
  Fe  Fe53  1  0.62479111  0.12354453  0.38911553  1
  Fe  Fe54  1  0.12510095  0.12503269  0.39689726  1
  Fe  Fe55  1  0.62703941  0.62321522  0.89463346  1
  Fe  Fe56  1  0.62125896  0.12303630  0.63411644  1
  Fe  Fe57  1  0.62417166  0.37518788  0.38557942  1
  Fe  Fe58  1  0.12777101  0.12153143  0.63047377  1
  Fe  Fe59  1  0.12243212  0.37463214  0.87747196  1
  Fe  Fe60  1  0.12218446  0.87551472  0.12937373  1
  Fe  Fe61  1  0.62043879  0.62824271  0.63820923  1
  Fe  Fe62  1  0.62743925  0.87527688  0.89513248  1
  Fe  Fe63  1  0.12404895  0.62154971  0.12936300  1
  Pb  Pb64  1  -0.00092761  -0.00513293  0.00422456  1
  Pb  Pb65  1  0.00678101  0.00264694  0.25163528  1
  Pb  Pb66  1  0.00536960  -0.00574401  0.50236853  1
  Pb  Pb67  1  0.00253831  0.00051737  0.74536980  1
  Pb  Pb68  1  -0.00042354  0.25177645  -0.00672006  1
  Pb  Pb69  1  -0.00149177  0.25288468  0.26198944  1
  Pb  Pb70  1  0.00251242  0.25851574  0.50765560  1
  Pb  Pb71  1  0.00401751  0.25527580  0.74043787  1
  Pb  Pb72  1  0.00116180  0.50544422  -0.00199898  1
  Pb  Pb73  1  0.00442320  0.50572975  0.25367510  1
  Pb  Pb74  1  0.00210985  0.49449932  0.50825944  1
  Pb  Pb75  1  -0.00025706  0.50064520  0.73776267  1
  Pb  Pb76  1  -0.00247100  0.74898029  0.00524425  1
  Pb  Pb77  1  0.00562490  0.74594940  0.23967838  1
  Pb  Pb78  1  0.00389427  0.74685755  0.50304816  1
  Pb  Pb79  1  0.00557954  0.74145948  0.74658098  1
  Pb  Pb80  1  0.25257151  -0.00528115  0.00425351  1
  Pb  Pb81  1  0.25435084  -0.00477899  0.24486114  1
  Pb  Pb82  1  0.24142844  -0.00499413  0.50246732  1
  Pb  Pb83  1  0.25989099  -0.00105095  0.75530037  1
  Pb  Pb84  1  0.25397266  0.25121266  -0.00844236  1
  Pb  Pb85  1  0.24319553  0.24180260  0.25785635  1
  Pb  Pb86  1  0.24582609  0.25178661  0.50545949  1
  Pb  Pb87  1  0.24864554  0.25353833  0.74848473  1
  Pb  Pb88  1  0.24527923  0.50100673  -0.00491397  1
  Pb  Pb89  1  0.24733681  0.51665374  0.25647077  1
  Pb  Pb90  1  0.24545907  0.50226281  0.50173691  1
  Pb  Pb91  1  0.23463969  0.50145119  0.75223328  1
  Pb  Pb92  1  0.26130734  0.74501243  0.00810416  1
  Pb  Pb93  1  0.25218976  0.74916650  0.23854911  1
  Pb  Pb94  1  0.24879864  0.74656063  0.49432334  1
  Pb  Pb95  1  0.24429343  0.74659269  0.75342728  1
  Pb  Pb96  1  0.49138018  -0.00920172  0.00132684  1
  Pb  Pb97  1  0.49359085  -0.00602984  0.24334478  1
  Pb  Pb98  1  0.51069638  -0.00563500  0.50373365  1
  Pb  Pb99  1  0.49217153  -0.00195938  0.75790984  1
  Pb  Pb100  1  0.49418037  0.24827168  -0.00190870  1
  Pb  Pb101  1  0.51159748  0.24774331  0.25633903  1
  Pb  Pb102  1  0.50322951  0.24591091  0.49918339  1
  Pb  Pb103  1  0.48822996  0.24635433  0.75434602  1
  Pb  Pb104  1  0.49501195  0.51093549  0.00424154  1
  Pb  Pb105  1  0.49753529  0.50441347  0.24817834  1
  Pb  Pb106  1  0.50354719  0.50713715  0.49991377  1
  Pb  Pb107  1  0.49708178  0.49880576  0.75314674  1
  Pb  Pb108  1  0.50321561  0.75429222  0.00055804  1
  Pb  Pb109  1  0.49613329  0.75011809  0.23523027  1
  Pb  Pb110  1  0.50610216  0.75131341  0.49773185  1
  Pb  Pb111  1  0.50788803  0.75814666  0.76081621  1
  Pb  Pb112  1  0.75377629  -0.00716663  0.00326679  1
  Pb  Pb113  1  0.74457023  0.00352796  0.24943583  1
  Pb  Pb114  1  0.74367584  -0.00244851  0.50209069  1
  Pb  Pb115  1  0.74174588  -0.00491664  0.74981607  1
  Pb  Pb116  1  0.75164115  0.25091953  -0.00079064  1
  Pb  Pb117  1  0.74902027  0.25750608  0.26221176  1
  Pb  Pb118  1  0.74800424  0.25235518  0.49658507  1
  Pb  Pb119  1  0.74763537  0.25024635  0.74232735  1
  Pb  Pb120  1  0.75483826  0.50549422  0.00316163  1
  Pb  Pb121  1  0.75383766  0.49182268  0.25263318  1
  Pb  Pb122  1  0.75374650  0.50401533  0.50165360  1
  Pb  Pb123  1  0.74609908  0.51156441  0.74499367  1
  Pb  Pb124  1  0.74702061  0.75020532  0.00196307  1
  Pb  Pb125  1  0.75053510  0.74825207  0.23478902  1
  Pb  Pb126  1  0.74725234  0.74409646  0.50394246  1
  Pb  Pb127  1  0.73469611  0.74879585  0.75575236  1
  O  O128  1  0.12215541  0.01343811  0.16076921  1
  O  O129  1  0.12459633  -0.00661477  0.41405752  1
  O  O130  1  0.12535856  0.00093014  0.66738259  1
  O  O131  1  0.12059976  0.00604141  0.91434222  1
  O  O132  1  0.12153706  0.25143962  0.17369406  1
  O  O133  1  0.12711957  0.25551362  0.41894210  1
  O  O134  1  0.12616651  0.24517280  0.66044180  1
  O  O135  1  0.11844323  0.24326094  0.90922843  1
  O  O136  1  0.12580589  0.48628554  0.16208094  1
  O  O137  1  0.12457259  0.49423834  0.41692872  1
  O  O138  1  0.12762245  0.50371796  0.66001585  1
  O  O139  1  0.12271930  0.49812970  0.90947553  1
  O  O140  1  0.12282505  0.74855817  0.15305411  1
  O  O141  1  0.12248564  0.75655005  0.41136390  1
  O  O142  1  0.12881473  0.75344113  0.66643475  1
  O  O143  1  0.12121756  0.75559554  0.91505645  1
  O  O144  1  0.37419051  0.00895826  0.15943022  1
  O  O145  1  0.37320686  0.00214029  0.40468685  1
  O  O146  1  0.37553414  0.00202470  0.66467005  1
  O  O147  1  0.37289783  0.00290615  0.91816418  1
  O  O148  1  0.37803829  0.25545534  0.17021741  1
  O  O149  1  0.37299269  0.25676719  0.41717442  1
  O  O150  1  0.37716595  0.24696481  0.66316678  1
  O  O151  1  0.37778648  0.25237608  0.91275507  1
  O  O152  1  0.37596916  0.48206777  0.16531783  1
  O  O153  1  0.37444386  0.49320618  0.41523207  1
  O  O154  1  0.37857168  0.50418135  0.66447416  1
  O  O155  1  0.37596792  0.50245148  0.91081847  1
  O  O156  1  0.37441290  0.74923525  0.15498365  1
  O  O157  1  0.37728272  0.75071076  0.40964392  1
  O  O158  1  0.37471124  0.75176958  0.66086792  1
  O  O159  1  0.37397438  0.74381301  0.91558645  1
  O  O160  1  0.63055912  0.01144518  0.15912607  1
  O  O161  1  0.62523481  -0.00628919  0.41192618  1
  O  O162  1  0.62277670  0.00145324  0.67014056  1
  O  O163  1  0.63196301  0.01081883  0.90943532  1
  O  O164  1  0.63031629  0.24897438  0.16984668  1
  O  O165  1  0.62231390  0.24874606  0.41595603  1
  O  O166  1  0.62195826  0.25416942  0.66002416  1
  O  O167  1  0.63295440  0.25182101  0.91616553  1
  O  O168  1  0.62856556  0.48921478  0.16177128  1
  O  O169  1  0.62634936  0.50723262  0.41056599  1
  O  O170  1  0.62093172  0.49332572  0.66268252  1
  O  O171  1  0.63098510  0.48987646  0.91149984  1
  O  O172  1  0.62684173  0.74924692  0.15150464  1
  O  O173  1  0.62475738  0.75071936  0.41080471  1
  O  O174  1  0.62045572  0.75364226  0.67005738  1
  O  O175  1  0.62909084  0.74811983  0.91852829  1
  O  O176  1  0.87716171  0.01335586  0.16741607  1
  O  O177  1  0.87340643  -0.00285895  0.41661972  1
  O  O178  1  0.87310191  0.00171145  0.66474899  1
  O  O179  1  0.87599789  0.00293963  0.91244358  1
  O  O180  1  0.87737588  0.24805955  0.17512939  1
  O  O181  1  0.87536136  0.24023522  0.41408843  1
  O  O182  1  0.87117425  0.24320435  0.65600425  1
  O  O183  1  0.87437721  0.24957263  0.91297670  1
  O  O184  1  0.87576297  0.49116052  0.16861683  1
  O  O185  1  0.87215958  0.50969534  0.41506245  1
  O  O186  1  0.87096896  0.50035346  0.65644921  1
  O  O187  1  0.87546562  0.50067328  0.90886933  1
  O  O188  1  0.87794755  0.74921413  0.15871351  1
  O  O189  1  0.87225846  0.75081851  0.41658901  1
  O  O190  1  0.87414688  0.75848776  0.66009700  1
  O  O191  1  0.87726039  0.74757512  0.91353196  1
  O  O192  1  -0.00034871  0.13182724  0.16949170  1
  O  O193  1  -0.00675368  0.12001053  0.41676879  1
  O  O194  1  -0.00792074  0.12276426  0.65769169  1
  O  O195  1  -0.00142289  0.12557331  0.91379588  1
  O  O196  1  0.00483789  0.37028698  0.17065150  1
  O  O197  1  0.00576789  0.37442433  0.41520612  1
  O  O198  1  -0.00404285  0.37349855  0.65862838  1
  O  O199  1  -0.00664275  0.37255075  0.90841630  1
  O  O200  1  0.00120955  0.61610757  0.16507105  1
  O  O201  1  -0.00516279  0.62891739  0.41324834  1
  O  O202  1  -0.00157153  0.62955823  0.65818782  1
  O  O203  1  -0.00663489  0.62544848  0.91268950  1
  O  O204  1  0.00110286  0.88238198  0.16728078  1
  O  O205  1  0.00022493  0.87488542  0.41387032  1
  O  O206  1  -0.00716648  0.87871245  0.66346756  1
  O  O207  1  0.00076121  0.87792462  0.91742619  1
  O  O208  1  0.24258197  0.13432179  0.16074602  1
  O  O209  1  0.25921788  0.12823122  0.41773879  1
  O  O210  1  0.25792536  0.12476771  0.66268533  1
  O  O211  1  0.23946862  0.12684073  0.90811720  1
  O  O212  1  0.24822415  0.36416955  0.15696850  1
  O  O213  1  0.24981445  0.37582832  0.41795715  1
  O  O214  1  0.25564249  0.37465247  0.66366274  1
  O  O215  1  0.24809913  0.37235494  0.90647747  1
  O  O216  1  0.24834929  0.61747987  0.16162196  1
  O  O217  1  0.25167476  0.62327221  0.41449943  1
  O  O218  1  0.26048399  0.62758584  0.66368660  1
  O  O219  1  0.25574209  0.62440679  0.91453745  1
  O  O220  1  0.24614406  0.88046007  0.15948637  1
  O  O221  1  0.24432767  0.87471193  0.40691540  1
  O  O222  1  0.25820886  0.87905426  0.66608449  1
  O  O223  1  0.24147233  0.87773834  0.91663854  1
  O  O224  1  0.50801920  0.13255329  0.15672499  1
  O  O225  1  0.48916926  0.12716443  0.41370625  1
  O  O226  1  0.49347044  0.12460322  0.66585800  1
  O  O227  1  0.51272059  0.13019209  0.91037661  1
  O  O228  1  0.50559415  0.36847103  0.16134949  1
  O  O229  1  0.49501055  0.37590410  0.41326569  1
  O  O230  1  0.50304189  0.37469417  0.66779323  1
  O  O231  1  0.51023760  0.37182850  0.90811406  1
  O  O232  1  0.50278196  0.61565925  0.16010758  1
  O  O233  1  0.50600456  0.62508428  0.41023984  1
  O  O234  1  0.49186818  0.62768895  0.66987578  1
  O  O235  1  0.49510481  0.62220957  0.91398068  1
  O  O236  1  0.50342617  0.88110815  0.15628776  1
  O  O237  1  0.50730852  0.87470252  0.40781993  1
  O  O238  1  0.49002279  0.87763644  0.66850434  1
  O  O239  1  0.50055490  0.87640220  0.91603781  1
  O  O240  1  0.75454548  0.13056001  0.16681454  1
  O  O241  1  0.75615938  0.12031689  0.41533835  1
  O  O242  1  0.75298390  0.12328276  0.66255697  1
  O  O243  1  0.75149587  0.12895057  0.91648357  1
  O  O244  1  0.75016492  0.36922271  0.16856612  1
  O  O245  1  0.74742657  0.37537900  0.41785924  1
  O  O246  1  0.74120601  0.37276957  0.65566191  1
  O  O247  1  0.75279372  0.37327810  0.91715261  1
  O  O248  1  0.75079636  0.61845044  0.16237482  1
  O  O249  1  0.74557762  0.62980492  0.41371225  1
  O  O250  1  0.74641460  0.62773824  0.66394063  1
  O  O251  1  0.75953966  0.62262307  0.91556610  1
  O  O252  1  0.75154160  0.88189331  0.16291446  1
  O  O253  1  0.74622540  0.87346392  0.41347384  1
  O  O254  1  0.75618991  0.87925957  0.66313965  1
  O  O255  1  0.75799472  0.87689083  0.91563340  1
  O  O256  1  0.11835484  0.13612985  0.05117196  1
  O  O257  1  0.12858673  0.12996211  0.29673585  1
  O  O258  1  0.13131722  0.11719522  0.52880064  1
  O  O259  1  0.11971321  0.12134995  0.79509539  1
  O  O260  1  0.11877250  0.36737579  0.04953250  1
  O  O261  1  0.12893305  0.37367355  0.30340779  1
  O  O262  1  0.12258458  0.37503672  0.53651058  1
  O  O263  1  0.12393209  0.37346988  0.77658272  1
  O  O264  1  0.12137693  0.61557428  0.02821831  1
  O  O265  1  0.12571422  0.61566695  0.29022846  1
  O  O266  1  0.12745608  0.63241071  0.53010210  1
  O  O267  1  0.12983314  0.63195623  0.78976519  1
  O  O268  1  0.11781047  0.88431183  0.02926558  1
  O  O269  1  0.12179735  0.87716827  0.29652034  1
  O  O270  1  0.12761272  0.88016920  0.53589818  1
  O  O271  1  0.12289758  0.87619707  0.80548878  1
  O  O272  1  0.37482669  0.13932315  0.03131358  1
  O  O273  1  0.37140205  0.12768517  0.29719725  1
  O  O274  1  0.37670858  0.12033044  0.54936536  1
  O  O275  1  0.37915465  0.12126250  0.78930412  1
  O  O276  1  0.37546617  0.36785353  0.04766857  1
  O  O277  1  0.37361781  0.37305869  0.30022582  1
  O  O278  1  0.37998762  0.37715340  0.55259727  1
  O  O279  1  0.38142952  0.37369601  0.77926532  1
  O  O280  1  0.37382952  0.61475267  0.03608475  1
  O  O281  1  0.37460129  0.61703140  0.28047432  1
  O  O282  1  0.38103362  0.62152824  0.54847214  1
  O  O283  1  0.37462659  0.62545793  0.79931963  1
  O  O284  1  0.37054276  0.87863822  0.03084777  1
  O  O285  1  0.37667802  0.88039185  0.27759824  1
  O  O286  1  0.37549841  0.87328545  0.55031122  1
  O  O287  1  0.37279887  0.88255817  0.79172349  1
  O  O288  1  0.63324032  0.13399998  0.04978446  1
  O  O289  1  0.62377810  0.12597964  0.28912046  1
  O  O290  1  0.61857623  0.11493755  0.53366766  1
  O  O291  1  0.63233256  0.13100753  0.79711025  1
  O  O292  1  0.62861469  0.36925416  0.05208162  1
  O  O293  1  0.62751458  0.36922331  0.28559279  1
  O  O294  1  0.61612888  0.37646743  0.54511005  1
  O  O295  1  0.63056886  0.37149901  0.79720465  1
  O  O296  1  0.62887484  0.61205128  0.02648009  1
  O  O297  1  0.62615957  0.62545970  0.29683244  1
  O  O298  1  0.61655533  0.63009455  0.53779235  1
  O  O299  1  0.63141433  0.62664812  0.79301664  1
  O  O300  1  0.63294719  0.88177588  0.02583691  1
  O  O301  1  0.62859507  0.87540440  0.29590742  1
  O  O302  1  0.61649894  0.87914541  0.53937521  1
  O  O303  1  0.62793565  0.86928766  0.79281241  1
  O  O304  1  0.87547686  0.13152601  0.05379354  1
  O  O305  1  0.87700396  0.12099664  0.30036573  1
  O  O306  1  0.87009513  0.11796076  0.54520750  1
  O  O307  1  0.87343465  0.12683116  0.79467910  1
  O  O308  1  0.87934592  0.37061483  0.05454003  1
  O  O309  1  0.87182606  0.37309477  0.29470475  1
  O  O310  1  0.87965869  0.37485535  0.52590352  1
  O  O311  1  0.86805501  0.37348157  0.79226225  1
  O  O312  1  0.87969668  0.61545549  0.03312898  1
  O  O313  1  0.87439719  0.62806723  0.30365784  1
  O  O314  1  0.86652402  0.63156094  0.52974460  1
  O  O315  1  0.87405290  0.62694149  0.79852263  1
  O  O316  1  0.87942908  0.88422137  0.03461092  1
  O  O317  1  0.87472732  0.87603795  0.29686217  1
  O  O318  1  0.87394824  0.87592728  0.54687680  1
  O  O319  1  0.87864655  0.87374929  0.79961069  1
