# generated using pymatgen
data_VFe(PbO3)2
_symmetry_space_group_name_H-M   'P 1'
_cell_length_a   15.39344543
_cell_length_b   15.38849282
_cell_length_c   18.48162637
_cell_angle_alpha   89.98791760
_cell_angle_beta   90.00014917
_cell_angle_gamma   90.01077559
_symmetry_Int_Tables_number   1
_chemical_formula_structural   VFe(PbO3)2
_chemical_formula_sum   'V32 Fe32 Pb64 O192'
_cell_volume   4377.96304717
_cell_formula_units_Z   32
loop_
 _symmetry_equiv_pos_site_id
 _symmetry_equiv_pos_as_xyz
  1  'x, y, z'
loop_
 _atom_site_type_symbol
 _atom_site_label
 _atom_site_symmetry_multiplicity
 _atom_site_fract_x
 _atom_site_fract_y
 _atom_site_fract_z
 _atom_site_occupancy
  V  V0  1  0.87815409  0.12327139  0.63581782  1
  V  V1  1  0.37463645  0.87407332  0.64327543  1
  V  V2  1  0.87341838  0.87348943  0.13764017  1
  V  V3  1  0.13230792  0.37464053  0.14380336  1
  V  V4  1  0.12534966  0.11847338  0.64020777  1
  V  V5  1  0.62735390  0.12943532  0.89246796  1
  V  V6  1  0.87546723  0.62659443  0.89485042  1
  V  V7  1  0.87522931  0.12513282  0.89603749  1
  V  V8  1  0.37695333  0.37323577  0.88527687  1
  V  V9  1  0.62954123  0.87930102  0.89964973  1
  V  V10  1  0.37990784  0.37648094  0.14138734  1
  V  V11  1  0.37749727  0.62263987  0.39358888  1
  V  V12  1  0.12539155  0.12805272  0.89616775  1
  V  V13  1  0.12811660  0.12440596  0.38249239  1
  V  V14  1  0.37231645  0.12634001  0.13628631  1
  V  V15  1  0.62452349  0.62354538  0.13844655  1
  V  V16  1  0.62631716  0.62400334  0.89045743  1
  V  V17  1  0.12510145  0.87765151  0.63913251  1
  V  V18  1  0.62297835  0.62580476  0.38795397  1
  V  V19  1  0.61907370  0.87413081  0.38473160  1
  V  V20  1  0.62395942  0.63184817  0.64013721  1
  V  V21  1  0.12428004  0.62427467  0.14123284  1
  V  V22  1  0.87513178  0.62640669  0.63507176  1
  V  V23  1  0.87766254  0.87472462  0.63849884  1
  V  V24  1  0.87450094  0.37434010  0.89107039  1
  V  V25  1  0.12164377  0.87257746  0.89785689  1
  V  V26  1  0.88397191  0.37804408  0.15029260  1
  V  V27  1  0.37333505  0.87234589  0.38414186  1
  V  V28  1  0.37484604  0.62658200  0.89084844  1
  V  V29  1  0.62884466  0.37801348  0.88959918  1
  V  V30  1  0.37582199  0.36865767  0.39529849  1
  V  V31  1  0.62795083  0.37514161  0.14503548  1
  Fe  Fe32  1  0.12316014  0.37343467  0.62789970  1
  Fe  Fe33  1  0.62298846  0.12853562  0.14276800  1
  Fe  Fe34  1  0.87381698  0.87445568  0.37667637  1
  Fe  Fe35  1  0.87483103  0.12837453  0.14633047  1
  Fe  Fe36  1  0.12564229  0.87545296  0.14113463  1
  Fe  Fe37  1  0.37395574  0.12056644  0.63738324  1
  Fe  Fe38  1  0.62655565  0.11836349  0.63277851  1
  Fe  Fe39  1  0.37425215  0.12054246  0.38412507  1
  Fe  Fe40  1  0.12874912  0.37483475  0.39255137  1
  Fe  Fe41  1  0.62786174  0.37273155  0.62854358  1
  Fe  Fe42  1  0.12897400  0.87604858  0.37340942  1
  Fe  Fe43  1  0.62030556  0.12344569  0.37746354  1
  Fe  Fe44  1  0.12733870  0.62761612  0.38684634  1
  Fe  Fe45  1  0.62312021  0.87432546  0.13050759  1
  Fe  Fe46  1  0.37587013  0.37490807  0.62942800  1
  Fe  Fe47  1  0.87438914  0.87831003  0.89363451  1
  Fe  Fe48  1  0.87412835  0.37491570  0.38231592  1
  Fe  Fe49  1  0.37719783  0.12525165  0.88579725  1
  Fe  Fe50  1  0.37361244  0.61666230  0.13314869  1
  Fe  Fe51  1  0.62681416  0.87461880  0.63639237  1
  Fe  Fe52  1  0.12554843  0.12993981  0.13478003  1
  Fe  Fe53  1  0.87548709  0.37501584  0.62774111  1
  Fe  Fe54  1  0.87470724  0.62025877  0.14920291  1
  Fe  Fe55  1  0.87291953  0.12215276  0.37447819  1
  Fe  Fe56  1  0.12329359  0.62368732  0.88563629  1
  Fe  Fe57  1  0.12131120  0.37706093  0.88567698  1
  Fe  Fe58  1  0.12375520  0.62933911  0.63186522  1
  Fe  Fe59  1  0.37525668  0.86834426  0.12625167  1
  Fe  Fe60  1  0.37441067  0.62859269  0.63393648  1
  Fe  Fe61  1  0.62059301  0.37707859  0.38994463  1
  Fe  Fe62  1  0.37588964  0.87780524  0.89981257  1
  Fe  Fe63  1  0.87224943  0.62902022  0.37658476  1
  Pb  Pb64  1  0.00647766  0.00452981  0.01047710  1
  Pb  Pb65  1  -0.00214936  -0.00032134  0.24317109  1
  Pb  Pb66  1  -0.00274321  -0.00400246  0.48401001  1
  Pb  Pb67  1  -0.00512798  -0.00649748  0.75486003  1
  Pb  Pb68  1  -0.00301137  0.24397770  0.00712940  1
  Pb  Pb69  1  -0.00436137  0.25021210  0.25524717  1
  Pb  Pb70  1  -0.00424248  0.25737574  0.49070251  1
  Pb  Pb71  1  0.00460161  0.25671374  0.74677267  1
  Pb  Pb72  1  -0.00311328  0.50451249  0.00398407  1
  Pb  Pb73  1  0.01270042  0.50075118  0.26452000  1
  Pb  Pb74  1  -0.00263526  0.50209086  0.48763630  1
  Pb  Pb75  1  0.01238166  0.49573701  0.74510718  1
  Pb  Pb76  1  0.00087933  0.75209634  0.00857337  1
  Pb  Pb77  1  -0.00828868  0.75071941  0.25340727  1
  Pb  Pb78  1  0.00323003  0.75032835  0.48476007  1
  Pb  Pb79  1  0.00311683  0.74549465  0.75211997  1
  Pb  Pb80  1  0.24674287  -0.00323723  0.00532330  1
  Pb  Pb81  1  0.24631448  -0.00599424  0.24240232  1
  Pb  Pb82  1  0.25508566  0.00565121  0.49726478  1
  Pb  Pb83  1  0.26230292  -0.00439869  0.76213695  1
  Pb  Pb84  1  0.24900789  0.24894497  -0.00193996  1
  Pb  Pb85  1  0.25289584  0.25026345  0.25586182  1
  Pb  Pb86  1  0.25226734  0.25572597  0.50384466  1
  Pb  Pb87  1  0.25308518  0.25165390  0.74299903  1
  Pb  Pb88  1  0.25284847  0.50276170  -0.00443716  1
  Pb  Pb89  1  0.24164611  0.50035272  0.26034386  1
  Pb  Pb90  1  0.24013269  0.50520914  0.50486748  1
  Pb  Pb91  1  0.24442614  0.49790052  0.73847627  1
  Pb  Pb92  1  0.24892591  0.75670124  0.00716481  1
  Pb  Pb93  1  0.24606892  0.74840643  0.24515222  1
  Pb  Pb94  1  0.24680784  0.74553758  0.49970771  1
  Pb  Pb95  1  0.24419077  0.74439945  0.75142693  1
  Pb  Pb96  1  0.50337318  -0.00080217  0.00280714  1
  Pb  Pb97  1  0.49942541  0.00502261  0.24264469  1
  Pb  Pb98  1  0.50039321  0.00735067  0.50129413  1
  Pb  Pb99  1  0.49741434  0.00321531  0.75250389  1
  Pb  Pb100  1  0.50774588  0.24752598  0.00025191  1
  Pb  Pb101  1  0.49936295  0.24174492  0.25883891  1
  Pb  Pb102  1  0.50968083  0.23896490  0.49963436  1
  Pb  Pb103  1  0.49890342  0.24501506  0.73837997  1
  Pb  Pb104  1  0.49664464  0.50357225  0.00014864  1
  Pb  Pb105  1  0.50511840  0.49471959  0.25602956  1
  Pb  Pb106  1  0.49612165  0.49222854  0.50764563  1
  Pb  Pb107  1  0.49828775  0.49664755  0.74156196  1
  Pb  Pb108  1  0.50086198  0.75279622  0.00409911  1
  Pb  Pb109  1  0.49324222  0.75026657  0.24008213  1
  Pb  Pb110  1  0.49721169  0.75201134  0.50313068  1
  Pb  Pb111  1  0.49192537  0.75993320  0.75799783  1
  Pb  Pb112  1  0.75067678  0.01438800  0.01368911  1
  Pb  Pb113  1  0.74555229  0.00593965  0.24401501  1
  Pb  Pb114  1  0.74128321  0.00320223  0.48988215  1
  Pb  Pb115  1  0.75273054  -0.00458322  0.74994505  1
  Pb  Pb116  1  0.75279580  0.24411391  0.01088113  1
  Pb  Pb117  1  0.75276716  0.25074136  0.25727771  1
  Pb  Pb118  1  0.74797011  0.24912124  0.48591637  1
  Pb  Pb119  1  0.74866276  0.24990025  0.74021923  1
  Pb  Pb120  1  0.75852628  0.50469276  0.00781292  1
  Pb  Pb121  1  0.74842475  0.49026336  0.26084779  1
  Pb  Pb122  1  0.75501605  0.48798466  0.49561548  1
  Pb  Pb123  1  0.75212530  0.49997421  0.74325844  1
  Pb  Pb124  1  0.74846298  0.75096484  0.00677937  1
  Pb  Pb125  1  0.75688124  0.75155349  0.25006200  1
  Pb  Pb126  1  0.74570276  0.75729341  0.49495980  1
  Pb  Pb127  1  0.75693321  0.75610862  0.75330695  1
  O  O128  1  0.12838950  0.00425913  0.15981259  1
  O  O129  1  0.12966687  0.00467398  0.40588630  1
  O  O130  1  0.12184356  0.00021456  0.67242810  1
  O  O131  1  0.12244744  0.00045850  0.91957754  1
  O  O132  1  0.12585441  0.25914171  0.16792159  1
  O  O133  1  0.13074448  0.24091783  0.41125665  1
  O  O134  1  0.12131153  0.23787087  0.66066594  1
  O  O135  1  0.12280382  0.24748493  0.91449327  1
  O  O136  1  0.12440454  0.49338678  0.16876871  1
  O  O137  1  0.13039220  0.50249705  0.41597536  1
  O  O138  1  0.12132344  0.50158245  0.65550567  1
  O  O139  1  0.12340066  0.50054305  0.91582790  1
  O  O140  1  0.12634834  0.74075682  0.15807286  1
  O  O141  1  0.12996427  0.75385078  0.40807873  1
  O  O142  1  0.12218065  0.75715030  0.66667781  1
  O  O143  1  0.12223842  0.75269057  0.91759675  1
  O  O144  1  0.37372584  0.00976862  0.14592991  1
  O  O145  1  0.37720817  -0.01064307  0.40900303  1
  O  O146  1  0.37187570  -0.00868798  0.66965133  1
  O  O147  1  0.37590567  0.00451486  0.92154641  1
  O  O148  1  0.37413486  0.26022725  0.16827003  1
  O  O149  1  0.37568691  0.25263759  0.41016165  1
  O  O150  1  0.37348383  0.24778768  0.66066730  1
  O  O151  1  0.37815209  0.25427887  0.91251907  1
  O  O152  1  0.37280147  0.49126525  0.16848828  1
  O  O153  1  0.37771037  0.50790604  0.41249830  1
  O  O154  1  0.37768782  0.50249953  0.66146920  1
  O  O155  1  0.37851808  0.49844933  0.91290318  1
  O  O156  1  0.37362307  0.74173405  0.15731082  1
  O  O157  1  0.37784076  0.75530255  0.41404347  1
  O  O158  1  0.37502985  0.75629389  0.67053655  1
  O  O159  1  0.37768382  0.74112290  0.91331791  1
  O  O160  1  0.62024293  -0.00041615  0.15849229  1
  O  O161  1  0.61915496  -0.00926868  0.40467606  1
  O  O162  1  0.62893288  -0.00367393  0.67005759  1
  O  O163  1  0.62822638  -0.00083158  0.91627297  1
  O  O164  1  0.61933242  0.26017367  0.16629669  1
  O  O165  1  0.61786128  0.24944969  0.40588331  1
  O  O166  1  0.62988165  0.24578173  0.65944241  1
  O  O167  1  0.62825936  0.25353731  0.91728328  1
  O  O168  1  0.62195667  0.49731556  0.16920216  1
  O  O169  1  0.61750482  0.51224435  0.41341905  1
  O  O170  1  0.63028891  0.51214047  0.66147674  1
  O  O171  1  0.62804587  0.50063642  0.91797782  1
  O  O172  1  0.62170811  0.74083076  0.15599781  1
  O  O173  1  0.61907812  0.75026662  0.41345198  1
  O  O174  1  0.62869316  0.74776019  0.67125196  1
  O  O175  1  0.62736621  0.74522998  0.91756736  1
  O  O176  1  0.87368266  -0.00705930  0.15766685  1
  O  O177  1  0.87411840  -0.00144551  0.40727324  1
  O  O178  1  0.87843185  0.00023060  0.66683836  1
  O  O179  1  0.87457514  0.00583285  0.92187048  1
  O  O180  1  0.87165712  0.26040973  0.16780549  1
  O  O181  1  0.87465791  0.24534425  0.40652774  1
  O  O182  1  0.87702457  0.24058647  0.65671344  1
  O  O183  1  0.87400587  0.24948874  0.92033417  1
  O  O184  1  0.87149688  0.49226752  0.17334915  1
  O  O185  1  0.87162990  0.50451025  0.40329209  1
  O  O186  1  0.87236021  0.50950814  0.65626334  1
  O  O187  1  0.87398519  0.50213641  0.91848182  1
  O  O188  1  0.87350351  0.75205752  0.16035727  1
  O  O189  1  0.87019392  0.75227347  0.41075636  1
  O  O190  1  0.87470601  0.74949710  0.66541504  1
  O  O191  1  0.87375203  0.74416157  0.91818028  1
  O  O192  1  0.00206871  0.13036798  0.16395558  1
  O  O193  1  0.00931125  0.12308499  0.40263843  1
  O  O194  1  -0.00144498  0.11948191  0.66604368  1
  O  O195  1  0.00198455  0.12604275  0.92098637  1
  O  O196  1  0.00173686  0.37577385  0.16593561  1
  O  O197  1  0.00070412  0.37450965  0.40780795  1
  O  O198  1  -0.00227171  0.37188738  0.66006163  1
  O  O199  1  -0.00733560  0.37461487  0.91875844  1
  O  O200  1  0.00814476  0.61754360  0.16637748  1
  O  O201  1  -0.00167316  0.62843700  0.40490385  1
  O  O202  1  -0.00865069  0.63082146  0.65825095  1
  O  O203  1  -0.00668498  0.62477191  0.91810538  1
  O  O204  1  -0.00622284  0.87249364  0.15915793  1
  O  O205  1  0.00287648  0.87610602  0.40160022  1
  O  O206  1  0.00049676  0.87681168  0.66867878  1
  O  O207  1  0.00257220  0.87573531  0.92293366  1
  O  O208  1  0.25661714  0.13631535  0.16142375  1
  O  O209  1  0.24760087  0.12245021  0.41370570  1
  O  O210  1  0.24093032  0.11906531  0.66488569  1
  O  O211  1  0.24400777  0.12596559  0.91437916  1
  O  O212  1  0.24987375  0.37549514  0.16365305  1
  O  O213  1  0.25921988  0.37769276  0.41708055  1
  O  O214  1  0.24778159  0.37273074  0.65908222  1
  O  O215  1  0.25680399  0.37503675  0.90975372  1
  O  O216  1  0.24281991  0.61556785  0.16268424  1
  O  O217  1  0.26007356  0.63049503  0.41353120  1
  O  O218  1  0.24917668  0.62992591  0.66450966  1
  O  O219  1  0.25635576  0.62155929  0.90843854  1
  O  O220  1  0.25499565  0.87330061  0.15999611  1
  O  O221  1  0.25790772  0.87436761  0.40575746  1
  O  O222  1  0.25048856  0.87453295  0.66752762  1
  O  O223  1  0.24152789  0.87483134  0.91792784  1
  O  O224  1  0.48937301  0.13438379  0.16144865  1
  O  O225  1  0.49743723  0.12013094  0.41383885  1
  O  O226  1  0.50026333  0.11869243  0.66363351  1
  O  O227  1  0.50667117  0.12647096  0.91510601  1
  O  O228  1  0.49694788  0.37842289  0.16443178  1
  O  O229  1  0.49225974  0.38223410  0.41549877  1
  O  O230  1  0.50460769  0.37642536  0.66075540  1
  O  O231  1  0.50257827  0.37630451  0.91369051  1
  O  O232  1  0.50551423  0.61686227  0.16247005  1
  O  O233  1  0.49840462  0.63218559  0.41874939  1
  O  O234  1  0.50763334  0.63079125  0.66297833  1
  O  O235  1  0.50017338  0.62121255  0.91542150  1
  O  O236  1  0.49691900  0.87253012  0.15794025  1
  O  O237  1  0.49905719  0.87119910  0.41194447  1
  O  O238  1  0.49395468  0.87437515  0.66560554  1
  O  O239  1  0.50951094  0.87264824  0.91759684  1
  O  O240  1  0.74785706  0.12853935  0.16604562  1
  O  O241  1  0.74578641  0.12016947  0.40065090  1
  O  O242  1  0.76123120  0.11974321  0.66059644  1
  O  O243  1  0.74958502  0.12696001  0.92318571  1
  O  O244  1  0.74353358  0.37707139  0.16569875  1
  O  O245  1  0.74712474  0.37721168  0.40855162  1
  O  O246  1  0.75266039  0.37634711  0.66297145  1
  O  O247  1  0.75270276  0.37668000  0.92000302  1
  O  O248  1  0.73885684  0.61887369  0.16587408  1
  O  O249  1  0.73842644  0.63099707  0.40602553  1
  O  O250  1  0.75343980  0.63079029  0.66583648  1
  O  O251  1  0.75335267  0.62299790  0.91902506  1
  O  O252  1  0.75224731  0.87230887  0.15797282  1
  O  O253  1  0.73824464  0.87248491  0.40496601  1
  O  O254  1  0.75665024  0.87429677  0.66780700  1
  O  O255  1  0.74684947  0.87200873  0.92159851  1
  O  O256  1  0.12499327  0.13158067  0.03413623  1
  O  O257  1  0.13441848  0.12734867  0.29107650  1
  O  O258  1  0.12539291  0.11300941  0.54972749  1
  O  O259  1  0.12137534  0.12367058  0.80562208  1
  O  O260  1  0.12807015  0.37535654  0.05265609  1
  O  O261  1  0.13239177  0.38184499  0.29071468  1
  O  O262  1  0.12945796  0.36657092  0.52704409  1
  O  O263  1  0.11456644  0.37527550  0.78569904  1
  O  O264  1  0.12305257  0.61873073  0.04912167  1
  O  O265  1  0.13081096  0.61570374  0.28525369  1
  O  O266  1  0.13117738  0.63337861  0.53136838  1
  O  O267  1  0.11606226  0.62962598  0.78587126  1
  O  O268  1  0.12653067  0.87077033  0.03903055  1
  O  O269  1  0.13414207  0.87565146  0.27194510  1
  O  O270  1  0.12465663  0.88027007  0.54833486  1
  O  O271  1  0.11942133  0.87550115  0.80671307  1
  O  O272  1  0.37283488  0.14101578  0.04531076  1
  O  O273  1  0.37583040  0.12858846  0.28401133  1
  O  O274  1  0.37185506  0.11015094  0.53698629  1
  O  O275  1  0.37262625  0.11741393  0.78571197  1
  O  O276  1  0.37808126  0.37546731  0.05016249  1
  O  O277  1  0.37471192  0.37617789  0.30325235  1
  O  O278  1  0.37844386  0.37592085  0.52947748  1
  O  O279  1  0.37912890  0.37513710  0.79419056  1
  O  O280  1  0.37417282  0.61177191  0.03335351  1
  O  O281  1  0.37937893  0.62706437  0.30213245  1
  O  O282  1  0.37514499  0.63765337  0.53474161  1
  O  O283  1  0.38106162  0.62669851  0.79962531  1
  O  O284  1  0.37339253  0.86658684  0.02370799  1
  O  O285  1  0.37784506  0.86953978  0.29268136  1
  O  O286  1  0.37364269  0.87408757  0.55234447  1
  O  O287  1  0.37716398  0.87670061  0.79840508  1
  O  O288  1  0.62718162  0.13295289  0.04028598  1
  O  O289  1  0.61051888  0.12140442  0.27496500  1
  O  O290  1  0.62177449  0.11497105  0.53196389  1
  O  O291  1  0.63250640  0.12879009  0.80151325  1
  O  O292  1  0.62533716  0.37792494  0.05373447  1
  O  O293  1  0.62022338  0.38680408  0.28837840  1
  O  O294  1  0.62535687  0.38054240  0.52806348  1
  O  O295  1  0.63218632  0.37817999  0.79885842  1
  O  O296  1  0.62632462  0.61684855  0.04666737  1
  O  O297  1  0.61600438  0.62582682  0.29682746  1
  O  O298  1  0.62615490  0.63657095  0.54919880  1
  O  O299  1  0.62760193  0.62349159  0.79973311  1
  O  O300  1  0.62366183  0.86954078  0.03035020  1
  O  O301  1  0.61543716  0.86947128  0.29357685  1
  O  O302  1  0.62915556  0.87177677  0.53717216  1
  O  O303  1  0.63100268  0.87518941  0.80799571  1
  O  O304  1  0.86976818  0.13295871  0.04306940  1
  O  O305  1  0.87641884  0.12562217  0.27285407  1
  O  O306  1  0.88089695  0.11760029  0.54530274  1
  O  O307  1  0.87485064  0.12699585  0.80502520  1
  O  O308  1  0.87651646  0.38041874  0.05844972  1
  O  O309  1  0.86894362  0.36967332  0.28023274  1
  O  O310  1  0.87150774  0.37569426  0.52778622  1
  O  O311  1  0.87404434  0.37480245  0.79991789  1
  O  O312  1  0.87461988  0.61330010  0.04779937  1
  O  O313  1  0.87246138  0.63712249  0.27408857  1
  O  O314  1  0.87050713  0.63066151  0.54456408  1
  O  O315  1  0.87468212  0.62454348  0.80394937  1
  O  O316  1  0.87426124  0.87056314  0.04553391  1
  O  O317  1  0.87301160  0.86626394  0.27648923  1
  O  O318  1  0.87725208  0.87665304  0.54761468  1
  O  O319  1  0.87439236  0.87867999  0.79404669  1
