# generated using pymatgen
data_VFe(PbO3)2
_symmetry_space_group_name_H-M   'P 1'
_cell_length_a   15.38298963
_cell_length_b   15.38456412
_cell_length_c   18.49664614
_cell_angle_alpha   90.00062807
_cell_angle_beta   89.98050060
_cell_angle_gamma   90.00814009
_symmetry_Int_Tables_number   1
_chemical_formula_structural   VFe(PbO3)2
_chemical_formula_sum   'V32 Fe32 Pb64 O192'
_cell_volume   4377.42689682
_cell_formula_units_Z   32
loop_
 _symmetry_equiv_pos_site_id
 _symmetry_equiv_pos_as_xyz
  1  'x, y, z'
loop_
 _atom_site_type_symbol
 _atom_site_label
 _atom_site_symmetry_multiplicity
 _atom_site_fract_x
 _atom_site_fract_y
 _atom_site_fract_z
 _atom_site_occupancy
  V  V0  1  0.87066079  0.12384414  0.65635432  1
  V  V1  1  0.62238266  0.12417554  0.39340218  1
  V  V2  1  0.12628780  0.37421326  0.13825973  1
  V  V3  1  0.37657352  0.62430908  0.64209692  1
  V  V4  1  0.62338712  0.12626124  0.88272501  1
  V  V5  1  0.87528665  0.62678447  0.38832001  1
  V  V6  1  0.36797821  0.12211362  0.39374670  1
  V  V7  1  0.87504748  0.37849024  0.64853352  1
  V  V8  1  0.62372033  0.37280129  0.13782562  1
  V  V9  1  0.37189171  0.87159385  0.63946843  1
  V  V10  1  0.37304289  0.87813877  0.13822858  1
  V  V11  1  0.37470003  0.37766830  0.88182435  1
  V  V12  1  0.62462137  0.37312372  0.64281027  1
  V  V13  1  0.87318234  0.87141057  0.64817310  1
  V  V14  1  0.62590056  0.62545728  0.38549801  1
  V  V15  1  0.87352331  0.62490923  0.88942949  1
  V  V16  1  0.12610068  0.37500791  0.64173619  1
  V  V17  1  0.61951906  0.12609289  0.13590388  1
  V  V18  1  0.87645760  0.37339615  0.13659654  1
  V  V19  1  0.12921503  0.12573005  0.13481867  1
  V  V20  1  0.87275202  0.87840728  0.38909753  1
  V  V21  1  0.87345267  0.37246410  0.39035171  1
  V  V22  1  0.37507165  0.87303759  0.88236514  1
  V  V23  1  0.87370803  0.12301406  0.38849888  1
  V  V24  1  0.12219303  0.12209921  0.64694125  1
  V  V25  1  0.11908842  0.12531383  0.39410587  1
  V  V26  1  0.37410626  0.37248608  0.14206963  1
  V  V27  1  0.62254447  0.87358214  0.64526703  1
  V  V28  1  0.12562604  0.62403890  0.88600699  1
  V  V29  1  0.12580596  0.62569551  0.14302926  1
  V  V30  1  0.11975588  0.62568845  0.63797399  1
  V  V31  1  0.62874036  0.62501421  0.64430463  1
  Fe  Fe32  1  0.12797487  0.12741150  0.87715026  1
  Fe  Fe33  1  0.62915975  0.37393049  0.38773063  1
  Fe  Fe34  1  0.12800028  0.87266407  0.87673127  1
  Fe  Fe35  1  0.87670144  0.62300182  0.13095225  1
  Fe  Fe36  1  0.12730112  0.37904499  0.88012194  1
  Fe  Fe37  1  0.37629723  0.37724331  0.63250276  1
  Fe  Fe38  1  0.87788545  0.87719173  0.12418320  1
  Fe  Fe39  1  0.62189813  0.62276228  0.89089898  1
  Fe  Fe40  1  0.62696182  0.87657075  0.38427422  1
  Fe  Fe41  1  0.37681592  0.12463344  0.64333586  1
  Fe  Fe42  1  0.87606765  0.87322267  0.89347453  1
  Fe  Fe43  1  0.37510401  0.12430579  0.87784171  1
  Fe  Fe44  1  0.37746754  0.87697711  0.38658795  1
  Fe  Fe45  1  0.87571205  0.12675990  0.88006340  1
  Fe  Fe46  1  0.62377887  0.62222078  0.12969182  1
  Fe  Fe47  1  0.87347733  0.62630943  0.63880615  1
  Fe  Fe48  1  0.37431977  0.62345492  0.14289664  1
  Fe  Fe49  1  0.12264624  0.37189276  0.38969753  1
  Fe  Fe50  1  0.37203983  0.62604193  0.88224094  1
  Fe  Fe51  1  0.12228949  0.62463926  0.38328067  1
  Fe  Fe52  1  0.37700059  0.37273730  0.39369292  1
  Fe  Fe53  1  0.12348295  0.87823942  0.38658735  1
  Fe  Fe54  1  0.62360340  0.87543236  0.89618519  1
  Fe  Fe55  1  0.62203886  0.87684496  0.12394218  1
  Fe  Fe56  1  0.37408314  0.12690213  0.13560970  1
  Fe  Fe57  1  0.62881256  0.12237837  0.64124689  1
  Fe  Fe58  1  0.87527466  0.37795071  0.88089356  1
  Fe  Fe59  1  0.12765747  0.87587880  0.13318550  1
  Fe  Fe60  1  0.37410684  0.62612271  0.37894439  1
  Fe  Fe61  1  0.62340843  0.37503407  0.88285983  1
  Fe  Fe62  1  0.87604924  0.12885998  0.12987744  1
  Fe  Fe63  1  0.12298905  0.87382538  0.64818399  1
  Pb  Pb64  1  0.00275817  -0.00054023  -0.01323857  1
  Pb  Pb65  1  0.00034516  -0.00376504  0.23959873  1
  Pb  Pb66  1  0.00247496  -0.00701926  0.51015429  1
  Pb  Pb67  1  -0.00832178  0.00074977  0.76064914  1
  Pb  Pb68  1  0.00081527  0.24888767  -0.01444530  1
  Pb  Pb69  1  0.00536160  0.25243424  0.24793785  1
  Pb  Pb70  1  -0.00475191  0.24829705  0.50551756  1
  Pb  Pb71  1  0.00058500  0.24957902  0.75724264  1
  Pb  Pb72  1  -0.00292927  0.50378662  -0.00215870  1
  Pb  Pb73  1  0.00935158  0.49995135  0.25364388  1
  Pb  Pb74  1  -0.00130102  0.50353797  0.49854537  1
  Pb  Pb75  1  0.00122097  0.49388317  0.75360983  1
  Pb  Pb76  1  0.00366935  0.75981567  -0.00003609  1
  Pb  Pb77  1  0.00238934  0.75298108  0.24358536  1
  Pb  Pb78  1  0.00703294  0.75552496  0.50109443  1
  Pb  Pb79  1  -0.00288717  0.75890920  0.75832959  1
  Pb  Pb80  1  0.24606775  0.00067051  -0.01033035  1
  Pb  Pb81  1  0.24879558  -0.00990405  0.25306855  1
  Pb  Pb82  1  0.24591069  -0.00826110  0.50652018  1
  Pb  Pb83  1  0.24733268  0.01080657  0.75480027  1
  Pb  Pb84  1  0.25180291  0.24531192  -0.00950007  1
  Pb  Pb85  1  0.25064829  0.25972433  0.25562717  1
  Pb  Pb86  1  0.25913826  0.25069447  0.50762450  1
  Pb  Pb87  1  0.24621879  0.24896710  0.74857645  1
  Pb  Pb88  1  0.25766021  0.50695523  0.00031756  1
  Pb  Pb89  1  0.24923043  0.50367785  0.25785035  1
  Pb  Pb90  1  0.25186329  0.49875839  0.49176172  1
  Pb  Pb91  1  0.25189108  0.50084304  0.74699890  1
  Pb  Pb92  1  0.24891964  0.75474976  -0.00067181  1
  Pb  Pb93  1  0.25663400  0.75037085  0.25381320  1
  Pb  Pb94  1  0.24774151  0.74949479  0.49118053  1
  Pb  Pb95  1  0.25178901  0.74557494  0.74966477  1
  Pb  Pb96  1  0.49731282  0.00019819  -0.00400132  1
  Pb  Pb97  1  0.50005727  -0.00969822  0.25103530  1
  Pb  Pb98  1  0.50100940  0.00792760  0.50613507  1
  Pb  Pb99  1  0.49987288  -0.00042405  0.75157901  1
  Pb  Pb100  1  0.49202951  0.24466932  -0.00552391  1
  Pb  Pb101  1  0.49798072  0.25893385  0.25741740  1
  Pb  Pb102  1  0.49457595  0.24803350  0.50814326  1
  Pb  Pb103  1  0.49493070  0.24774528  0.74566548  1
  Pb  Pb104  1  0.49873220  0.50840120  -0.00119861  1
  Pb  Pb105  1  0.49470901  0.49947402  0.25067812  1
  Pb  Pb106  1  0.49677690  0.49477761  0.49512405  1
  Pb  Pb107  1  0.50791563  0.50436420  0.75539643  1
  Pb  Pb108  1  0.50341918  0.74345572  -0.00130554  1
  Pb  Pb109  1  0.50261328  0.75006848  0.24198187  1
  Pb  Pb110  1  0.49924062  0.75378384  0.49290396  1
  Pb  Pb111  1  0.50625554  0.74075949  0.75934447  1
  Pb  Pb112  1  0.76134793  0.00176725  -0.00384727  1
  Pb  Pb113  1  0.74744647  -0.00486679  0.23709708  1
  Pb  Pb114  1  0.74609991  0.00523486  0.50577998  1
  Pb  Pb115  1  0.74960669  -0.01352328  0.76438993  1
  Pb  Pb116  1  0.75624369  0.24886500  -0.00825586  1
  Pb  Pb117  1  0.74388744  0.25286153  0.24839817  1
  Pb  Pb118  1  0.74631826  0.24281938  0.50556121  1
  Pb  Pb119  1  0.75482401  0.25623276  0.75692344  1
  Pb  Pb120  1  0.74561119  0.50360275  -0.00350363  1
  Pb  Pb121  1  0.74698528  0.50041908  0.24429769  1
  Pb  Pb122  1  0.75656675  0.50558131  0.50189632  1
  Pb  Pb123  1  0.74402900  0.49695456  0.75808838  1
  Pb  Pb124  1  0.74749725  0.75591411  -0.00056809  1
  Pb  Pb125  1  0.74859900  0.75410016  0.23147377  1
  Pb  Pb126  1  0.75693377  0.74654404  0.50119669  1
  Pb  Pb127  1  0.74446267  0.75751743  0.76467969  1
  O  O128  1  0.12744466  0.00883949  0.15625719  1
  O  O129  1  0.12292515  0.00843539  0.42268877  1
  O  O130  1  0.12256718  0.00474001  0.66628166  1
  O  O131  1  0.12969660  -0.00115559  0.90170730  1
  O  O132  1  0.12561378  0.25081887  0.16561355  1
  O  O133  1  0.12230536  0.23966217  0.42271403  1
  O  O134  1  0.12372578  0.25041026  0.66437041  1
  O  O135  1  0.12899843  0.25351110  0.90756395  1
  O  O136  1  0.12458057  0.49637304  0.16705983  1
  O  O137  1  0.11910365  0.49805924  0.41628885  1
  O  O138  1  0.12515746  0.50536364  0.66297439  1
  O  O139  1  0.12760645  0.50745697  0.91328961  1
  O  O140  1  0.12590267  0.74333988  0.16095807  1
  O  O141  1  0.12009787  0.75240093  0.41397152  1
  O  O142  1  0.12369540  0.74102537  0.66333317  1
  O  O143  1  0.12792129  0.74187145  0.91026425  1
  O  O144  1  0.37302526  -0.00238125  0.16157814  1
  O  O145  1  0.37760277  0.00768941  0.41978799  1
  O  O146  1  0.37908947  -0.01263468  0.66332612  1
  O  O147  1  0.37271873  -0.00633282  0.90654592  1
  O  O148  1  0.37392901  0.25475996  0.16794769  1
  O  O149  1  0.37817309  0.23874910  0.41973079  1
  O  O150  1  0.37694573  0.25376481  0.66295141  1
  O  O151  1  0.37439536  0.25617706  0.90362068  1
  O  O152  1  0.37302006  0.48923787  0.16790857  1
  O  O153  1  0.37803738  0.50229985  0.41275167  1
  O  O154  1  0.37744557  0.50402285  0.66171833  1
  O  O155  1  0.37251267  0.49553103  0.90905915  1
  O  O156  1  0.37237430  0.75710416  0.16281220  1
  O  O157  1  0.37752242  0.74966799  0.41275922  1
  O  O158  1  0.38024909  0.75340267  0.66726851  1
  O  O159  1  0.37433711  0.75620134  0.90955319  1
  O  O160  1  0.62043040  0.00776799  0.15492145  1
  O  O161  1  0.62965137  0.00575966  0.41896564  1
  O  O162  1  0.62864603  -0.00977941  0.66691999  1
  O  O163  1  0.62140789  0.01070361  0.91134948  1
  O  O164  1  0.62309444  0.25012233  0.16729537  1
  O  O165  1  0.63073460  0.24122388  0.41776740  1
  O  O166  1  0.62827688  0.25721135  0.66227922  1
  O  O167  1  0.62104821  0.24413490  0.90852301  1
  O  O168  1  0.62426093  0.49149208  0.16312896  1
  O  O169  1  0.63201173  0.50776639  0.41316855  1
  O  O170  1  0.62608195  0.50334544  0.66426289  1
  O  O171  1  0.62281885  0.49704579  0.91552044  1
  O  O172  1  0.62299447  0.75107874  0.15280891  1
  O  O173  1  0.63126761  0.74395868  0.41129395  1
  O  O174  1  0.62710654  0.74974241  0.66880973  1
  O  O175  1  0.62246028  0.74780069  0.91517669  1
  O  O176  1  0.87618500  0.00469222  0.15767689  1
  O  O177  1  0.87435239  -0.00101276  0.41810516  1
  O  O178  1  0.87297880  -0.00612075  0.67270154  1
  O  O179  1  0.87485137  0.00296902  0.90764513  1
  O  O180  1  0.87481527  0.25551214  0.16406384  1
  O  O181  1  0.87436815  0.24497249  0.41933091  1
  O  O182  1  0.87343468  0.25592076  0.66991898  1
  O  O183  1  0.87391774  0.25137986  0.90724699  1
  O  O184  1  0.87633477  0.48843570  0.16379697  1
  O  O185  1  0.87392360  0.49937469  0.41444699  1
  O  O186  1  0.87404936  0.49728472  0.66562901  1
  O  O187  1  0.87899719  0.50642644  0.91237834  1
  O  O188  1  0.87699496  0.75033816  0.15745638  1
  O  O189  1  0.87397800  0.75667564  0.41182520  1
  O  O190  1  0.87233204  0.75345937  0.66905687  1
  O  O191  1  0.87806785  0.74006357  0.91346958  1
  O  O192  1  0.00939637  0.13044376  0.15887237  1
  O  O193  1  -0.00038338  0.12359793  0.41837703  1
  O  O194  1  0.00326732  0.12686653  0.67092729  1
  O  O195  1  0.00310579  0.12689313  0.90445096  1
  O  O196  1  -0.00200107  0.37149631  0.16110057  1
  O  O197  1  -0.00710854  0.36964523  0.42166656  1
  O  O198  1  -0.00278425  0.37690853  0.66651461  1
  O  O199  1  0.00131257  0.37890877  0.90932741  1
  O  O200  1  0.00530828  0.61969794  0.16455547  1
  O  O201  1  -0.00673944  0.62652204  0.41505804  1
  O  O202  1  0.00390333  0.62303989  0.66217207  1
  O  O203  1  0.00573789  0.62388886  0.91064045  1
  O  O204  1  0.00283290  0.87662988  0.15992686  1
  O  O205  1  -0.00849093  0.87953620  0.41770276  1
  O  O206  1  -0.00830716  0.87383731  0.66933800  1
  O  O207  1  0.00470923  0.87045167  0.90756758  1
  O  O208  1  0.24386255  0.13071995  0.16434570  1
  O  O209  1  0.24969511  0.12403389  0.41469040  1
  O  O210  1  0.24469602  0.12400446  0.66165835  1
  O  O211  1  0.25276905  0.12620175  0.90915372  1
  O  O212  1  0.25147934  0.37245417  0.16576278  1
  O  O213  1  0.24818332  0.36899309  0.41799041  1
  O  O214  1  0.24714160  0.37832581  0.65849334  1
  O  O215  1  0.25750521  0.37746565  0.90957409  1
  O  O216  1  0.24319824  0.61983225  0.16770782  1
  O  O217  1  0.24857751  0.62496373  0.41035094  1
  O  O218  1  0.24783662  0.62624197  0.66222301  1
  O  O219  1  0.24547368  0.62462360  0.91322671  1
  O  O220  1  0.25322273  0.87660094  0.16479834  1
  O  O221  1  0.24986192  0.88067344  0.41792038  1
  O  O222  1  0.25640186  0.86940661  0.65722409  1
  O  O223  1  0.25563009  0.87168965  0.90881709  1
  O  O224  1  0.50415612  0.12950654  0.16594666  1
  O  O225  1  0.50436087  0.12307372  0.41375321  1
  O  O226  1  0.50457688  0.12209945  0.66732168  1
  O  O227  1  0.50089661  0.12613192  0.90828966  1
  O  O228  1  0.49606240  0.37193798  0.16445482  1
  O  O229  1  0.50654126  0.37244942  0.41847640  1
  O  O230  1  0.50780664  0.37933679  0.66052334  1
  O  O231  1  0.49100201  0.37538175  0.90877500  1
  O  O232  1  0.50061573  0.62071649  0.16573501  1
  O  O233  1  0.50991047  0.62531399  0.40573569  1
  O  O234  1  0.50548174  0.62756613  0.66694025  1
  O  O235  1  0.49385548  0.62353511  0.91363714  1
  O  O236  1  0.49349627  0.87811509  0.15909737  1
  O  O237  1  0.50413260  0.87810672  0.41759999  1
  O  O238  1  0.50531689  0.87104908  0.66480422  1
  O  O239  1  0.49071819  0.87689889  0.90996879  1
  O  O240  1  0.73926221  0.12911523  0.15975138  1
  O  O241  1  0.75180308  0.12272444  0.41896915  1
  O  O242  1  0.75059332  0.12608422  0.67369770  1
  O  O243  1  0.74228611  0.12700241  0.90450102  1
  O  O244  1  0.75261132  0.37146770  0.16032983  1
  O  O245  1  0.75519426  0.37228256  0.42043467  1
  O  O246  1  0.74912549  0.37926449  0.66767905  1
  O  O247  1  0.74998055  0.37630512  0.91065750  1
  O  O248  1  0.75013112  0.61948162  0.16080196  1
  O  O249  1  0.75171491  0.62670443  0.41760158  1
  O  O250  1  0.74424835  0.62522680  0.66729715  1
  O  O251  1  0.75614979  0.62274972  0.90726726  1
  O  O252  1  0.74902477  0.88004119  0.15053967  1
  O  O253  1  0.75635435  0.87781830  0.41513389  1
  O  O254  1  0.74924024  0.87172503  0.67173319  1
  O  O255  1  0.75037271  0.87371685  0.91635889  1
  O  O256  1  0.13180871  0.12977641  0.04353478  1
  O  O257  1  0.12022100  0.12556540  0.30353196  1
  O  O258  1  0.11816303  0.12371198  0.55509760  1
  O  O259  1  0.13454832  0.12980278  0.77599368  1
  O  O260  1  0.12826980  0.37571348  0.04774201  1
  O  O261  1  0.11923451  0.36659489  0.28944562  1
  O  O262  1  0.11729106  0.37347512  0.55069158  1
  O  O263  1  0.12638012  0.38339966  0.77945476  1
  O  O264  1  0.12744223  0.62134338  0.05187231  1
  O  O265  1  0.12009882  0.61841408  0.28341854  1
  O  O266  1  0.12015403  0.62573639  0.54652518  1
  O  O267  1  0.12703794  0.62313879  0.79453810  1
  O  O268  1  0.13225863  0.86819166  0.03341581  1
  O  O269  1  0.12464394  0.88445930  0.28674262  1
  O  O270  1  0.11508974  0.88007920  0.54633696  1
  O  O271  1  0.12589045  0.86501083  0.77454021  1
  O  O272  1  0.37754646  0.13172720  0.03633496  1
  O  O273  1  0.37232637  0.12294767  0.30291773  1
  O  O274  1  0.38033290  0.12485526  0.54199644  1
  O  O275  1  0.37265305  0.11980537  0.77622404  1
  O  O276  1  0.37419882  0.37307858  0.05127473  1
  O  O277  1  0.37747803  0.36492777  0.29299886  1
  O  O278  1  0.37976418  0.37036414  0.53164768  1
  O  O279  1  0.37425468  0.38046282  0.79019574  1
  O  O280  1  0.36941908  0.61632963  0.04248276  1
  O  O281  1  0.37054934  0.62454887  0.27768273  1
  O  O282  1  0.37829492  0.62948924  0.55119006  1
  O  O283  1  0.37243914  0.62943734  0.78170015  1
  O  O284  1  0.37012636  0.87678397  0.04716572  1
  O  O285  1  0.37329748  0.88339964  0.28652103  1
  O  O286  1  0.37924075  0.87015043  0.54809040  1
  O  O287  1  0.37452423  0.87259070  0.79089539  1
  O  O288  1  0.61626702  0.13297851  0.04509781  1
  O  O289  1  0.62572500  0.12326640  0.30265306  1
  O  O290  1  0.63321041  0.12021067  0.54052744  1
  O  O291  1  0.62066687  0.12469862  0.79126533  1
  O  O292  1  0.62160274  0.36950020  0.04711738  1
  O  O293  1  0.62843311  0.36711602  0.28796571  1
  O  O294  1  0.63023681  0.37638871  0.55167890  1
  O  O295  1  0.62564669  0.38325162  0.78227364  1
  O  O296  1  0.62066948  0.61654478  0.02899070  1
  O  O297  1  0.63242299  0.62345757  0.29463823  1
  O  O298  1  0.62712834  0.62752420  0.55345964  1
  O  O299  1  0.61735463  0.62135917  0.78826799  1
  O  O300  1  0.61550062  0.87937648  0.02342627  1
  O  O301  1  0.62314704  0.88379064  0.28488191  1
  O  O302  1  0.62742460  0.87205416  0.55427008  1
  O  O303  1  0.63173898  0.87363202  0.79309044  1
  O  O304  1  0.87059272  0.13142884  0.03050982  1
  O  O305  1  0.87389425  0.12385255  0.29783760  1
  O  O306  1  0.87561762  0.12255027  0.56420248  1
  O  O307  1  0.88148009  0.12759976  0.77708700  1
  O  O308  1  0.87578919  0.37355790  0.04568895  1
  O  O309  1  0.87462737  0.37154331  0.29932756  1
  O  O310  1  0.87367000  0.37411891  0.55727053  1
  O  O311  1  0.87355890  0.37939611  0.77980867  1
  O  O312  1  0.88026332  0.61584069  0.03222066  1
  O  O313  1  0.87323657  0.62549470  0.29755213  1
  O  O314  1  0.86745860  0.62811833  0.53920843  1
  O  O315  1  0.87843337  0.62491746  0.79778104  1
  O  O316  1  0.88180836  0.87552269  0.02286520  1
  O  O317  1  0.87476755  0.88150315  0.29835870  1
  O  O318  1  0.87134902  0.87422080  0.55684281  1
  O  O319  1  0.87031108  0.86940128  0.79033912  1
