# generated using pymatgen
data_VFe(PbO3)2
_symmetry_space_group_name_H-M   'P 1'
_cell_length_a   15.38286840
_cell_length_b   15.38642026
_cell_length_c   18.59252522
_cell_angle_alpha   90.04347948
_cell_angle_beta   89.96806813
_cell_angle_gamma   89.99033575
_symmetry_Int_Tables_number   1
_chemical_formula_structural   VFe(PbO3)2
_chemical_formula_sum   'V32 Fe32 Pb64 O192'
_cell_volume   4400.61217295
_cell_formula_units_Z   32
loop_
 _symmetry_equiv_pos_site_id
 _symmetry_equiv_pos_as_xyz
  1  'x, y, z'
loop_
 _atom_site_type_symbol
 _atom_site_label
 _atom_site_symmetry_multiplicity
 _atom_site_fract_x
 _atom_site_fract_y
 _atom_site_fract_z
 _atom_site_occupancy
  V  V0  1  0.87913346  0.87700005  0.88903066  1
  V  V1  1  0.62304131  0.12898428  0.38809238  1
  V  V2  1  0.87603992  0.12247680  0.64230458  1
  V  V3  1  0.37617823  0.62236380  0.39404156  1
  V  V4  1  0.12669131  0.12444183  0.38656108  1
  V  V5  1  0.62579463  0.62502816  0.64261816  1
  V  V6  1  0.12139648  0.62696481  0.88862509  1
  V  V7  1  0.62196096  0.87893544  0.39040186  1
  V  V8  1  0.62355087  0.38039937  0.13799110  1
  V  V9  1  0.37455119  0.37671219  0.14029967  1
  V  V10  1  0.62263550  0.13489175  0.13262532  1
  V  V11  1  0.62244741  0.63112296  0.13661222  1
  V  V12  1  0.37932032  0.87532664  0.65092043  1
  V  V13  1  0.62510690  0.12642687  0.64576801  1
  V  V14  1  0.62394673  0.37739453  0.39036502  1
  V  V15  1  0.87146910  0.37465392  0.63968112  1
  V  V16  1  0.37190477  0.12430864  0.64496319  1
  V  V17  1  0.37593469  0.62451663  0.13959851  1
  V  V18  1  0.37091827  0.62725362  0.63893723  1
  V  V19  1  0.62360750  0.88817658  0.13177649  1
  V  V20  1  0.12394369  0.37510072  0.39020359  1
  V  V21  1  0.63119264  0.37868118  0.88685426  1
  V  V22  1  0.12491073  0.62481807  0.14311804  1
  V  V23  1  0.37388069  0.37264271  0.39451107  1
  V  V24  1  0.62242850  0.62676944  0.39130406  1
  V  V25  1  0.87554763  0.62467765  0.88682273  1
  V  V26  1  0.37450601  0.37574782  0.88609160  1
  V  V27  1  0.12468907  0.87775483  0.63691754  1
  V  V28  1  0.12601889  0.87576713  0.14096554  1
  V  V29  1  0.62646200  0.87749423  0.64706015  1
  V  V30  1  0.12417773  0.12345568  0.88884688  1
  V  V31  1  0.37110161  0.62356024  0.88517765  1
  Fe  Fe32  1  0.12736223  0.62383066  0.39181679  1
  Fe  Fe33  1  0.12650590  0.12550940  0.13234733  1
  Fe  Fe34  1  0.37545922  0.87028735  0.13632330  1
  Fe  Fe35  1  0.87363220  0.87065980  0.13799386  1
  Fe  Fe36  1  0.12717898  0.37670103  0.13160565  1
  Fe  Fe37  1  0.37683406  0.12642838  0.38562684  1
  Fe  Fe38  1  0.12711670  0.87493049  0.38186890  1
  Fe  Fe39  1  0.87208863  0.62627442  0.14282314  1
  Fe  Fe40  1  0.12424191  0.12527394  0.63458862  1
  Fe  Fe41  1  0.37762099  0.87488030  0.38625928  1
  Fe  Fe42  1  0.62721952  0.87198373  0.88186858  1
  Fe  Fe43  1  0.12537043  0.37091291  0.63403949  1
  Fe  Fe44  1  0.87447667  0.12280502  0.13281938  1
  Fe  Fe45  1  0.37438989  0.12709978  0.88084368  1
  Fe  Fe46  1  0.87620239  0.12748654  0.88746044  1
  Fe  Fe47  1  0.62440838  0.37230801  0.63656848  1
  Fe  Fe48  1  0.12433264  0.62402615  0.62670934  1
  Fe  Fe49  1  0.62622850  0.12475244  0.88520675  1
  Fe  Fe50  1  0.87282542  0.62207719  0.38730020  1
  Fe  Fe51  1  0.62592999  0.62462544  0.88390926  1
  Fe  Fe52  1  0.12223088  0.87304394  0.88603912  1
  Fe  Fe53  1  0.87476676  0.37679875  0.13552940  1
  Fe  Fe54  1  0.87900025  0.37787838  0.88490505  1
  Fe  Fe55  1  0.37618641  0.12348574  0.13414552  1
  Fe  Fe56  1  0.37102496  0.87331775  0.87817141  1
  Fe  Fe57  1  0.87445355  0.12755766  0.38397467  1
  Fe  Fe58  1  0.37951298  0.37386790  0.63563045  1
  Fe  Fe59  1  0.87276046  0.87645521  0.63100694  1
  Fe  Fe60  1  0.87414779  0.87720190  0.39170006  1
  Fe  Fe61  1  0.87456363  0.62656920  0.63069879  1
  Fe  Fe62  1  0.12832938  0.37610334  0.89104457  1
  Fe  Fe63  1  0.87404433  0.37160638  0.38367219  1
  Pb  Pb64  1  0.00115660  0.00874185  0.00314002  1
  Pb  Pb65  1  -0.00543576  -0.00037343  0.24527540  1
  Pb  Pb66  1  -0.00244033  -0.00279577  0.49367901  1
  Pb  Pb67  1  0.00341984  -0.00306696  0.74986294  1
  Pb  Pb68  1  0.00462680  0.25419021  -0.00196419  1
  Pb  Pb69  1  -0.00234499  0.25079474  0.23818492  1
  Pb  Pb70  1  0.00746565  0.24835588  0.50000372  1
  Pb  Pb71  1  -0.00675943  0.25348423  0.75345113  1
  Pb  Pb72  1  -0.00018630  0.49188424  0.00332273  1
  Pb  Pb73  1  -0.00665054  0.49768951  0.24878288  1
  Pb  Pb74  1  -0.00309823  0.50759369  0.49706166  1
  Pb  Pb75  1  0.00217330  0.49426462  0.74279774  1
  Pb  Pb76  1  -0.01139341  0.74826997  0.00661128  1
  Pb  Pb77  1  0.00621624  0.74954917  0.25639313  1
  Pb  Pb78  1  -0.00087642  0.74627413  0.49138861  1
  Pb  Pb79  1  -0.00051065  0.74836300  0.73785867  1
  Pb  Pb80  1  0.25632747  0.00035311  -0.00491570  1
  Pb  Pb81  1  0.25656612  -0.00182316  0.24556733  1
  Pb  Pb82  1  0.25059216  0.00169166  0.49491753  1
  Pb  Pb83  1  0.25058979  -0.00691230  0.75470124  1
  Pb  Pb84  1  0.24750336  0.23674167  0.00276319  1
  Pb  Pb85  1  0.24908943  0.24366917  0.24511666  1
  Pb  Pb86  1  0.24305248  0.24885512  0.50479807  1
  Pb  Pb87  1  0.24093364  0.25576625  0.74964167  1
  Pb  Pb88  1  0.24561416  0.49816801  0.00081027  1
  Pb  Pb89  1  0.24293596  0.50626010  0.25456679  1
  Pb  Pb90  1  0.24451629  0.49188389  0.50601107  1
  Pb  Pb91  1  0.23897649  0.49076422  0.74639149  1
  Pb  Pb92  1  0.25442314  0.75816214  -0.00083029  1
  Pb  Pb93  1  0.24242799  0.75086041  0.25775757  1
  Pb  Pb94  1  0.24470329  0.75226957  0.49771585  1
  Pb  Pb95  1  0.24600387  0.75810205  0.75014435  1
  Pb  Pb96  1  0.49312710  -0.00211500  -0.01300871  1
  Pb  Pb97  1  0.48727733  0.00071168  0.25117902  1
  Pb  Pb98  1  0.49646112  0.00322917  0.50164416  1
  Pb  Pb99  1  0.50150348  0.00710868  0.75970937  1
  Pb  Pb100  1  0.49582510  0.24443596  -0.00446713  1
  Pb  Pb101  1  0.49631516  0.24481457  0.25036458  1
  Pb  Pb102  1  0.49925150  0.25799061  0.50572994  1
  Pb  Pb103  1  0.50006528  0.24370956  0.75370840  1
  Pb  Pb104  1  0.50098304  0.50244225  -0.00410035  1
  Pb  Pb105  1  0.49987836  0.49987316  0.25184994  1
  Pb  Pb106  1  0.50090250  0.49014691  0.50751610  1
  Pb  Pb107  1  0.50307932  0.50221295  0.74809043  1
  Pb  Pb108  1  0.49857073  0.75783143  -0.00810335  1
  Pb  Pb109  1  0.49724243  0.75642721  0.24973477  1
  Pb  Pb110  1  0.50168369  0.74742868  0.50420986  1
  Pb  Pb111  1  0.50885888  0.74975871  0.75679557  1
  Pb  Pb112  1  0.75428494  0.00325961  -0.00495177  1
  Pb  Pb113  1  0.76260729  -0.00019634  0.25418292  1
  Pb  Pb114  1  0.75455478  -0.00257244  0.50212438  1
  Pb  Pb115  1  0.74719344  0.00465516  0.75553767  1
  Pb  Pb116  1  0.76702534  0.24871866  -0.00090789  1
  Pb  Pb117  1  0.76180342  0.24971158  0.24891198  1
  Pb  Pb118  1  0.74862709  0.25396032  0.49862155  1
  Pb  Pb119  1  0.75839143  0.24577705  0.75730375  1
  Pb  Pb120  1  0.76466590  0.50373763  0.00488611  1
  Pb  Pb121  1  0.75977244  0.50140751  0.25501557  1
  Pb  Pb122  1  0.75403684  0.50159273  0.49994866  1
  Pb  Pb123  1  0.75131270  0.49916517  0.74904915  1
  Pb  Pb124  1  0.75635816  0.74944622  0.00071946  1
  Pb  Pb125  1  0.76512235  0.75351118  0.25986264  1
  Pb  Pb126  1  0.76146920  0.74971682  0.50273968  1
  Pb  Pb127  1  0.74668240  0.75218900  0.75030927  1
  O  O128  1  0.12652660  -0.00803064  0.16017530  1
  O  O129  1  0.12779973  0.00695802  0.40768699  1
  O  O130  1  0.12559084  -0.00272887  0.66432413  1
  O  O131  1  0.12460898  0.00392669  0.91301671  1
  O  O132  1  0.12916865  0.25242734  0.16188182  1
  O  O133  1  0.12857209  0.25025534  0.41318480  1
  O  O134  1  0.12462295  0.24727092  0.66806996  1
  O  O135  1  0.12550491  0.24455628  0.91068006  1
  O  O136  1  0.12992082  0.50561926  0.16588732  1
  O  O137  1  0.12968453  0.49158455  0.41301427  1
  O  O138  1  0.12578064  0.49831694  0.65887081  1
  O  O139  1  0.12814072  0.51104142  0.91623660  1
  O  O140  1  0.12768450  0.74519398  0.16751981  1
  O  O141  1  0.12866329  0.75026408  0.41513473  1
  O  O142  1  0.12513895  0.75695831  0.65619251  1
  O  O143  1  0.12443693  0.74123530  0.91533239  1
  O  O144  1  0.37853904  -0.00353512  0.16210035  1
  O  O145  1  0.37981829  0.00176043  0.41813791  1
  O  O146  1  0.37890230  0.00244209  0.66972942  1
  O  O147  1  0.37236402  -0.00006766  0.90448469  1
  O  O148  1  0.37826791  0.25799455  0.16216528  1
  O  O149  1  0.37846881  0.25218561  0.41570621  1
  O  O150  1  0.38160328  0.24164667  0.66118367  1
  O  O151  1  0.37438864  0.25941663  0.90675030  1
  O  O152  1  0.37700209  0.49845265  0.16928640  1
  O  O153  1  0.37946049  0.50182814  0.42010404  1
  O  O154  1  0.37982731  0.51110264  0.66065019  1
  O  O155  1  0.37234113  0.50291195  0.91369182  1
  O  O156  1  0.38097011  0.74361261  0.16692534  1
  O  O157  1  0.38026227  0.74189857  0.41613272  1
  O  O158  1  0.37861176  0.74438183  0.66906188  1
  O  O159  1  0.37148739  0.74139130  0.90755963  1
  O  O160  1  0.62113348  0.00233432  0.14257365  1
  O  O161  1  0.62040381  -0.00194315  0.41168015  1
  O  O162  1  0.62679050  0.00377282  0.66990107  1
  O  O163  1  0.62669699  -0.00261852  0.91135745  1
  O  O164  1  0.61698195  0.25303207  0.16035282  1
  O  O165  1  0.62165630  0.24743746  0.41150269  1
  O  O166  1  0.62565511  0.24324854  0.66526733  1
  O  O167  1  0.62085159  0.26478939  0.91089937  1
  O  O168  1  0.61821869  0.49475816  0.16367794  1
  O  O169  1  0.62101970  0.50281635  0.41471834  1
  O  O170  1  0.62613346  0.50501516  0.66200118  1
  O  O171  1  0.62131761  0.49647190  0.91520261  1
  O  O172  1  0.61630354  0.74261643  0.15246350  1
  O  O173  1  0.61992136  0.74639820  0.41418915  1
  O  O174  1  0.62570435  0.74749239  0.66689999  1
  O  O175  1  0.62682568  0.74735740  0.91393938  1
  O  O176  1  0.86936627  -0.00345398  0.16348055  1
  O  O177  1  0.87020765  0.00537473  0.41765284  1
  O  O178  1  0.87284987  0.00508503  0.66368214  1
  O  O179  1  0.87831136  -0.00602320  0.90956737  1
  O  O180  1  0.87007796  0.24945959  0.15878159  1
  O  O181  1  0.87164717  0.24879857  0.41733195  1
  O  O182  1  0.87147812  0.24797430  0.66570527  1
  O  O183  1  0.87785094  0.25355207  0.91425401  1
  O  O184  1  0.87040360  0.50115609  0.16746825  1
  O  O185  1  0.87055695  0.49516905  0.41508398  1
  O  O186  1  0.87204164  0.49335649  0.65905475  1
  O  O187  1  0.87750424  0.50796802  0.91273937  1
  O  O188  1  0.87150110  0.74948471  0.17261716  1
  O  O189  1  0.86857647  0.74959276  0.41155527  1
  O  O190  1  0.87478814  0.75233962  0.65902069  1
  O  O191  1  0.87971568  0.74480527  0.91281565  1
  O  O192  1  0.00059399  0.12100459  0.16054136  1
  O  O193  1  0.00737111  0.12775854  0.40850214  1
  O  O194  1  -0.00717211  0.12547468  0.66240594  1
  O  O195  1  0.00533641  0.12367129  0.91439326  1
  O  O196  1  0.00177472  0.37881062  0.16097503  1
  O  O197  1  0.00712977  0.37185680  0.40880245  1
  O  O198  1  -0.00842186  0.37105484  0.66005788  1
  O  O199  1  0.00364810  0.38049428  0.91500268  1
  O  O200  1  0.00745744  0.62478520  0.16421436  1
  O  O201  1  -0.00028642  0.62125138  0.40983782  1
  O  O202  1  0.00016434  0.62371054  0.65878099  1
  O  O203  1  0.00152568  0.62461020  0.91215924  1
  O  O204  1  0.00608864  0.86900381  0.16363735  1
  O  O205  1  0.00157711  0.87823115  0.41215883  1
  O  O206  1  0.00479641  0.87954812  0.65742040  1
  O  O207  1  -0.00459968  0.87097944  0.91795649  1
  O  O208  1  0.25201256  0.12344802  0.16514839  1
  O  O209  1  0.24662221  0.12726703  0.41172197  1
  O  O210  1  0.25609493  0.12223386  0.66077621  1
  O  O211  1  0.24573159  0.12628533  0.90966938  1
  O  O212  1  0.25869016  0.37832884  0.16288585  1
  O  O213  1  0.24937981  0.37371327  0.41713130  1
  O  O214  1  0.25495531  0.37318625  0.66380686  1
  O  O215  1  0.25856960  0.38029993  0.91511663  1
  O  O216  1  0.25181762  0.62451038  0.16737662  1
  O  O217  1  0.26117046  0.62099798  0.41576530  1
  O  O218  1  0.25464703  0.62913648  0.65479179  1
  O  O219  1  0.25075511  0.62460776  0.91216803  1
  O  O220  1  0.24548071  0.86876705  0.16222429  1
  O  O221  1  0.25340146  0.87568644  0.41512070  1
  O  O222  1  0.24576563  0.87629515  0.66485416  1
  O  O223  1  0.24710347  0.87086975  0.91473563  1
  O  O224  1  0.50644119  0.12659403  0.16361116  1
  O  O225  1  0.50760842  0.12430426  0.41851874  1
  O  O226  1  0.50456645  0.12160610  0.66751533  1
  O  O227  1  0.50012456  0.12941166  0.91228747  1
  O  O228  1  0.49734849  0.37679610  0.16872719  1
  O  O229  1  0.50133338  0.37498683  0.41912493  1
  O  O230  1  0.50171341  0.37603915  0.66911525  1
  O  O231  1  0.49330565  0.38202647  0.91031770  1
  O  O232  1  0.50191334  0.61775459  0.16818625  1
  O  O233  1  0.50171892  0.62308156  0.42199523  1
  O  O234  1  0.50428935  0.62781174  0.66622839  1
  O  O235  1  0.49085100  0.62268230  0.90827766  1
  O  O236  1  0.51102028  0.87221620  0.16435280  1
  O  O237  1  0.50582043  0.87221902  0.42073252  1
  O  O238  1  0.50292612  0.87489564  0.67290620  1
  O  O239  1  0.49714034  0.87023936  0.90424714  1
  O  O240  1  0.73546295  0.12683507  0.15797093  1
  O  O241  1  0.73740977  0.12410022  0.41478974  1
  O  O242  1  0.75001914  0.12455010  0.66676727  1
  O  O243  1  0.74997259  0.12729041  0.91532042  1
  O  O244  1  0.73743852  0.37377074  0.15857426  1
  O  O245  1  0.74312918  0.37269648  0.41456839  1
  O  O246  1  0.75279518  0.37246113  0.66535302  1
  O  O247  1  0.74554285  0.38139423  0.90783273  1
  O  O248  1  0.73521019  0.62051092  0.16285853  1
  O  O249  1  0.73782587  0.62359742  0.41448814  1
  O  O250  1  0.74538634  0.62534545  0.66236598  1
  O  O251  1  0.75878620  0.62488379  0.90855655  1
  O  O252  1  0.73318209  0.87045093  0.16339279  1
  O  O253  1  0.73601845  0.87441824  0.41752388  1
  O  O254  1  0.74756346  0.87726426  0.66565205  1
  O  O255  1  0.76215329  0.86933285  0.91083374  1
  O  O256  1  0.12975637  0.12502788  0.03270348  1
  O  O257  1  0.12900617  0.12835519  0.29606942  1
  O  O258  1  0.12550767  0.13201485  0.53551434  1
  O  O259  1  0.12138270  0.12157651  0.79787605  1
  O  O260  1  0.12849149  0.38307807  0.03142610  1
  O  O261  1  0.12992834  0.37499063  0.29973889  1
  O  O262  1  0.12904894  0.36580080  0.53391575  1
  O  O263  1  0.13455524  0.37907333  0.79002229  1
  O  O264  1  0.12781975  0.62674340  0.05283710  1
  O  O265  1  0.13647474  0.62676556  0.29080772  1
  O  O266  1  0.12683891  0.62094981  0.52678761  1
  O  O267  1  0.12185783  0.62603315  0.79788890  1
  O  O268  1  0.12535227  0.87052221  0.05025278  1
  O  O269  1  0.12631059  0.86502917  0.28247601  1
  O  O270  1  0.12976226  0.88099853  0.54636416  1
  O  O271  1  0.12408544  0.87549480  0.78670536  1
  O  O272  1  0.37302885  0.13104047  0.03430713  1
  O  O273  1  0.38379432  0.12333066  0.28599844  1
  O  O274  1  0.37992126  0.11879772  0.55401356  1
  O  O275  1  0.38275000  0.12928638  0.78150262  1
  O  O276  1  0.37827641  0.38059768  0.05008688  1
  O  O277  1  0.37471784  0.37714951  0.30405017  1
  O  O278  1  0.38375575  0.37562790  0.53541701  1
  O  O279  1  0.37265859  0.37983758  0.79532554  1
  O  O280  1  0.37690005  0.62397788  0.04914256  1
  O  O281  1  0.38102887  0.61991440  0.30342010  1
  O  O282  1  0.37982314  0.63102067  0.54841709  1
  O  O283  1  0.36886577  0.62029459  0.79491975  1
  O  O284  1  0.37551464  0.86543741  0.03684618  1
  O  O285  1  0.38643484  0.87583914  0.28659219  1
  O  O286  1  0.37738897  0.87328196  0.55998328  1
  O  O287  1  0.36067533  0.87150087  0.77697292  1
  O  O288  1  0.61936639  0.14019089  0.04203303  1
  O  O289  1  0.62162397  0.12748388  0.29746819  1
  O  O290  1  0.62480139  0.12349100  0.55517248  1
  O  O291  1  0.62513954  0.12472943  0.78505629  1
  O  O292  1  0.61776970  0.38134969  0.04769456  1
  O  O293  1  0.62171802  0.37705013  0.29955883  1
  O  O294  1  0.61980558  0.37038561  0.53697539  1
  O  O295  1  0.62779530  0.38124285  0.79563311  1
  O  O296  1  0.62065968  0.62135585  0.04543031  1
  O  O297  1  0.61958380  0.62504137  0.30097787  1
  O  O298  1  0.62261933  0.62907008  0.55177833  1
  O  O299  1  0.62659838  0.62489292  0.78460085  1
  O  O300  1  0.62322585  0.87258133  0.04121169  1
  O  O301  1  0.62144497  0.87568371  0.30007253  1
  O  O302  1  0.62226928  0.87644692  0.55622353  1
  O  O303  1  0.63276071  0.86768745  0.78187718  1
  O  O304  1  0.87161721  0.12065630  0.03206849  1
  O  O305  1  0.86424847  0.12273022  0.28407764  1
  O  O306  1  0.87165050  0.12504871  0.55172736  1
  O  O307  1  0.87324635  0.13151123  0.78715157  1
  O  O308  1  0.87076151  0.38608687  0.03470433  1
  O  O309  1  0.86763554  0.37292204  0.28349213  1
  O  O310  1  0.86877927  0.36963433  0.54903576  1
  O  O311  1  0.87701936  0.37379002  0.78489385  1
  O  O312  1  0.86990888  0.62818414  0.04197882  1
  O  O313  1  0.86415437  0.62106359  0.28587243  1
  O  O314  1  0.86880779  0.62076346  0.53055361  1
  O  O315  1  0.87862811  0.62442216  0.79617960  1
  O  O316  1  0.87280713  0.86124980  0.03846615  1
  O  O317  1  0.86081358  0.88099469  0.29032263  1
  O  O318  1  0.86716215  0.88015877  0.53088316  1
  O  O319  1  0.88252889  0.87467007  0.79820312  1
