# generated using pymatgen
data_VFe(PbO3)2
_symmetry_space_group_name_H-M   'P 1'
_cell_length_a   15.37914503
_cell_length_b   15.39129302
_cell_length_c   18.48622278
_cell_angle_alpha   89.96964042
_cell_angle_beta   89.99513860
_cell_angle_gamma   89.99218188
_symmetry_Int_Tables_number   1
_chemical_formula_structural   VFe(PbO3)2
_chemical_formula_sum   'V32 Fe32 Pb64 O192'
_cell_volume   4375.77935265
_cell_formula_units_Z   32
loop_
 _symmetry_equiv_pos_site_id
 _symmetry_equiv_pos_as_xyz
  1  'x, y, z'
loop_
 _atom_site_type_symbol
 _atom_site_label
 _atom_site_symmetry_multiplicity
 _atom_site_fract_x
 _atom_site_fract_y
 _atom_site_fract_z
 _atom_site_occupancy
  V  V0  1  0.37757579  0.62448015  0.14176120  1
  V  V1  1  0.62461411  0.87420827  0.63225049  1
  V  V2  1  0.87524649  0.37597765  0.39237569  1
  V  V3  1  0.12681500  0.37548981  0.38908521  1
  V  V4  1  0.62755358  0.62735280  0.38875331  1
  V  V5  1  0.62498819  0.87667032  0.89108442  1
  V  V6  1  0.62568795  0.86638034  0.13971735  1
  V  V7  1  0.62259264  0.37825105  0.39503801  1
  V  V8  1  0.37573546  0.87311502  0.89066150  1
  V  V9  1  0.62574040  0.37312122  0.14137073  1
  V  V10  1  0.87365792  0.87546234  0.89079635  1
  V  V11  1  0.87237020  0.12246876  0.88529564  1
  V  V12  1  0.87440627  0.62535560  0.89097169  1
  V  V13  1  0.12371136  0.87478780  0.38558280  1
  V  V14  1  0.87469092  0.12919397  0.14626108  1
  V  V15  1  0.12424693  0.37421355  0.14003925  1
  V  V16  1  0.37501079  0.37250112  0.14608201  1
  V  V17  1  0.37647492  0.62524754  0.88980521  1
  V  V18  1  0.62389870  0.37420011  0.88880116  1
  V  V19  1  0.37462148  0.12321708  0.89166129  1
  V  V20  1  0.87486134  0.62486030  0.39080716  1
  V  V21  1  0.62558511  0.87937132  0.38712964  1
  V  V22  1  0.62525184  0.12311996  0.14426456  1
  V  V23  1  0.87548360  0.37343817  0.13928324  1
  V  V24  1  0.12082137  0.12221290  0.89038403  1
  V  V25  1  0.62350556  0.62236794  0.63791169  1
  V  V26  1  0.37571729  0.37439357  0.63979842  1
  V  V27  1  0.62384724  0.62893539  0.89715713  1
  V  V28  1  0.12656937  0.37352876  0.63890688  1
  V  V29  1  0.12736212  0.12590307  0.63529336  1
  V  V30  1  0.37338858  0.12677526  0.38795619  1
  V  V31  1  0.12585712  0.12375241  0.14554184  1
  Fe  Fe32  1  0.62429484  0.12089110  0.88398284  1
  Fe  Fe33  1  0.37644201  0.87702804  0.14488625  1
  Fe  Fe34  1  0.37482622  0.87627056  0.62838355  1
  Fe  Fe35  1  0.87567267  0.37643169  0.63768970  1
  Fe  Fe36  1  0.62319285  0.12578593  0.62546917  1
  Fe  Fe37  1  0.87274252  0.62185523  0.13370478  1
  Fe  Fe38  1  0.12654512  0.62609804  0.88800636  1
  Fe  Fe39  1  0.87433771  0.37465231  0.88158990  1
  Fe  Fe40  1  0.12555667  0.87528835  0.62866348  1
  Fe  Fe41  1  0.12530981  0.62269538  0.13365740  1
  Fe  Fe42  1  0.12470764  0.87482346  0.13489497  1
  Fe  Fe43  1  0.12486640  0.12610706  0.38311407  1
  Fe  Fe44  1  0.37642896  0.87430091  0.38692875  1
  Fe  Fe45  1  0.12661901  0.62448520  0.62627612  1
  Fe  Fe46  1  0.87808055  0.12382523  0.62920030  1
  Fe  Fe47  1  0.12485832  0.87727116  0.88976710  1
  Fe  Fe48  1  0.12695676  0.37433054  0.88500477  1
  Fe  Fe49  1  0.87592589  0.62602447  0.63322466  1
  Fe  Fe50  1  0.62429642  0.61961618  0.13347765  1
  Fe  Fe51  1  0.37140656  0.12485704  0.63356126  1
  Fe  Fe52  1  0.37684473  0.37647588  0.88524562  1
  Fe  Fe53  1  0.37545058  0.62186359  0.39119128  1
  Fe  Fe54  1  0.87228846  0.87292956  0.38518639  1
  Fe  Fe55  1  0.87419655  0.87734258  0.14444580  1
  Fe  Fe56  1  0.37574500  0.62432489  0.63053459  1
  Fe  Fe57  1  0.62373817  0.37682084  0.62859060  1
  Fe  Fe58  1  0.62485461  0.12765547  0.39459585  1
  Fe  Fe59  1  0.12229028  0.62259196  0.39278952  1
  Fe  Fe60  1  0.37398661  0.37534348  0.38115997  1
  Fe  Fe61  1  0.87589873  0.12627631  0.38929540  1
  Fe  Fe62  1  0.37620875  0.12788124  0.13775613  1
  Fe  Fe63  1  0.87518313  0.87377435  0.62948393  1
  Pb  Pb64  1  -0.00435078  -0.01195207  0.00745032  1
  Pb  Pb65  1  -0.00580024  -0.00179139  0.25435362  1
  Pb  Pb66  1  -0.00455937  -0.00109054  0.49360090  1
  Pb  Pb67  1  0.00308394  -0.00924047  0.74302986  1
  Pb  Pb68  1  -0.00260728  0.25282744  -0.00493310  1
  Pb  Pb69  1  0.00148178  0.24353709  0.25735791  1
  Pb  Pb70  1  -0.00701268  0.24785695  0.50066745  1
  Pb  Pb71  1  -0.00361048  0.25657259  0.74783586  1
  Pb  Pb72  1  0.00131994  0.50387836  -0.00421718  1
  Pb  Pb73  1  0.00713679  0.50758279  0.25030781  1
  Pb  Pb74  1  -0.01033938  0.50121898  0.50626244  1
  Pb  Pb75  1  0.00724743  0.50620931  0.74747104  1
  Pb  Pb76  1  0.00638006  0.75038809  0.00268754  1
  Pb  Pb77  1  0.00258934  0.74692623  0.24281378  1
  Pb  Pb78  1  0.00421706  0.75840737  0.50214093  1
  Pb  Pb79  1  0.00927664  0.74879487  0.74111702  1
  Pb  Pb80  1  0.25505517  -0.00588432  0.00550053  1
  Pb  Pb81  1  0.25364899  -0.00462181  0.24972165  1
  Pb  Pb82  1  0.24889977  -0.01015021  0.49746082  1
  Pb  Pb83  1  0.24788041  -0.00920653  0.74520795  1
  Pb  Pb84  1  0.25444375  0.24720854  -0.00039002  1
  Pb  Pb85  1  0.24807694  0.25168126  0.25300608  1
  Pb  Pb86  1  0.25382569  0.24548198  0.49881410  1
  Pb  Pb87  1  0.25139268  0.25991435  0.75437515  1
  Pb  Pb88  1  0.24504938  0.49984078  -0.00238369  1
  Pb  Pb89  1  0.25115915  0.50929912  0.25612038  1
  Pb  Pb90  1  0.25057025  0.50905507  0.49846961  1
  Pb  Pb91  1  0.24273556  0.50543935  0.74987140  1
  Pb  Pb92  1  0.23971826  0.75273134  0.00334906  1
  Pb  Pb93  1  0.24402231  0.74719709  0.24994797  1
  Pb  Pb94  1  0.24476176  0.74781119  0.49557815  1
  Pb  Pb95  1  0.24448724  0.74823613  0.73872035  1
  Pb  Pb96  1  0.49158077  -0.00084435  0.00661361  1
  Pb  Pb97  1  0.49817896  -0.00119804  0.25472313  1
  Pb  Pb98  1  0.48909309  0.00329567  0.50162784  1
  Pb  Pb99  1  0.50154229  0.00569758  0.74284324  1
  Pb  Pb100  1  0.49590839  0.24325892  0.00034580  1
  Pb  Pb101  1  0.50763855  0.24736434  0.25697028  1
  Pb  Pb102  1  0.49956289  0.24178790  0.50300262  1
  Pb  Pb103  1  0.50741384  0.24282398  0.74392557  1
  Pb  Pb104  1  0.50509064  0.50219807  0.00292832  1
  Pb  Pb105  1  0.48947656  0.49924214  0.25629253  1
  Pb  Pb106  1  0.49700691  0.49940386  0.49966660  1
  Pb  Pb107  1  0.49388354  0.49358222  0.74975571  1
  Pb  Pb108  1  0.49492025  0.75718305  0.00558998  1
  Pb  Pb109  1  0.48343095  0.74538765  0.26169994  1
  Pb  Pb110  1  0.48855979  0.74866384  0.49877564  1
  Pb  Pb111  1  0.49561392  0.75136786  0.74370522  1
  Pb  Pb112  1  0.75360213  -0.00577601  0.00429098  1
  Pb  Pb113  1  0.75755208  0.00449958  0.26096189  1
  Pb  Pb114  1  0.75838135  0.00827450  0.49746151  1
  Pb  Pb115  1  0.74838091  0.00728240  0.73848777  1
  Pb  Pb116  1  0.74899224  0.24822798  -0.00585681  1
  Pb  Pb117  1  0.74816155  0.24115949  0.26203284  1
  Pb  Pb118  1  0.74725978  0.24962636  0.50330528  1
  Pb  Pb119  1  0.74978933  0.24912672  0.73687135  1
  Pb  Pb120  1  0.75116852  0.50714879  0.00297374  1
  Pb  Pb121  1  0.74934531  0.49955579  0.24840159  1
  Pb  Pb122  1  0.75375634  0.49452470  0.50652427  1
  Pb  Pb123  1  0.75770920  0.49225696  0.74659628  1
  Pb  Pb124  1  0.75935089  0.74873034  0.00675063  1
  Pb  Pb125  1  0.75810072  0.75073680  0.24810239  1
  Pb  Pb126  1  0.75803869  0.74924578  0.50220271  1
  Pb  Pb127  1  0.75282759  0.74985992  0.74597010  1
  O  O128  1  0.12276289  0.00810847  0.16408918  1
  O  O129  1  0.12405057  -0.00469146  0.40705967  1
  O  O130  1  0.12694191  0.00827875  0.65626962  1
  O  O131  1  0.12655275  0.00841895  0.91947906  1
  O  O132  1  0.12448228  0.25377096  0.16729343  1
  O  O133  1  0.12192487  0.25877069  0.41527052  1
  O  O134  1  0.12841615  0.25221863  0.66414748  1
  O  O135  1  0.12825832  0.23957450  0.91684287  1
  O  O136  1  0.12603604  0.49257722  0.16302887  1
  O  O137  1  0.11948460  0.48971456  0.41633792  1
  O  O138  1  0.12920973  0.49258984  0.65875866  1
  O  O139  1  0.12587089  0.50053588  0.91598636  1
  O  O140  1  0.12754800  0.74768886  0.16300872  1
  O  O141  1  0.12449578  0.75529252  0.40877656  1
  O  O142  1  0.12616185  0.74941272  0.65628338  1
  O  O143  1  0.12511740  0.75113113  0.91613480  1
  O  O144  1  0.38003260  0.00501263  0.17011588  1
  O  O145  1  0.37621382  0.00602241  0.40886606  1
  O  O146  1  0.37490060  -0.00027784  0.66228802  1
  O  O147  1  0.37710325  0.00115009  0.91683155  1
  O  O148  1  0.37363105  0.25246839  0.16851629  1
  O  O149  1  0.37362482  0.24783709  0.41090279  1
  O  O150  1  0.37363134  0.25591942  0.66308528  1
  O  O151  1  0.37612115  0.24346511  0.91348155  1
  O  O152  1  0.37733103  0.50090463  0.16594741  1
  O  O153  1  0.37711514  0.49566495  0.41592227  1
  O  O154  1  0.37556675  0.49414007  0.66238331  1
  O  O155  1  0.37913851  0.50756322  0.91284626  1
  O  O156  1  0.37795448  0.74371879  0.16516436  1
  O  O157  1  0.37921275  0.74925474  0.41025920  1
  O  O158  1  0.37875855  0.75060586  0.65939669  1
  O  O159  1  0.37882273  0.74809935  0.91699363  1
  O  O160  1  0.62538076  0.00992248  0.16417470  1
  O  O161  1  0.62514876  -0.00569925  0.40440133  1
  O  O162  1  0.62403184  -0.00717992  0.65311667  1
  O  O163  1  0.62363497  -0.00547408  0.91703167  1
  O  O164  1  0.62698180  0.25413732  0.17108098  1
  O  O165  1  0.62846980  0.26070119  0.41517943  1
  O  O166  1  0.62157576  0.25125554  0.65606875  1
  O  O167  1  0.62373598  0.25366371  0.91222143  1
  O  O168  1  0.62351424  0.49006693  0.16467272  1
  O  O169  1  0.62898500  0.49992276  0.41527524  1
  O  O170  1  0.62243944  0.50604237  0.66136228  1
  O  O171  1  0.62292920  0.49602208  0.91523001  1
  O  O172  1  0.62840224  0.75176218  0.15052232  1
  O  O173  1  0.62757507  0.74210085  0.41148383  1
  O  O174  1  0.62297009  0.74971711  0.66154368  1
  O  O175  1  0.62518103  0.75291844  0.92177211  1
  O  O176  1  0.87171767  0.00842172  0.16984020  1
  O  O177  1  0.87317663  -0.00253306  0.40958483  1
  O  O178  1  0.87490555  -0.00101256  0.65960776  1
  O  O179  1  0.87465666  0.00122929  0.91880141  1
  O  O180  1  0.87531824  0.25375462  0.17153058  1
  O  O181  1  0.87406570  0.25893361  0.41223172  1
  O  O182  1  0.87847018  0.24864017  0.66074838  1
  O  O183  1  0.87362504  0.24481689  0.91313859  1
  O  O184  1  0.87427133  0.49082820  0.16475659  1
  O  O185  1  0.87354504  0.50056531  0.41645960  1
  O  O186  1  0.87404054  0.50276306  0.66581522  1
  O  O187  1  0.87188654  0.50550791  0.90901403  1
  O  O188  1  0.86993415  0.74906172  0.16271456  1
  O  O189  1  0.86888399  0.74237762  0.40789637  1
  O  O190  1  0.87165752  0.75024258  0.66574033  1
  O  O191  1  0.87088876  0.74896714  0.91633114  1
  O  O192  1  0.00174342  0.13031876  0.16870231  1
  O  O193  1  0.00207503  0.12811994  0.41319210  1
  O  O194  1  0.01088270  0.12866773  0.66032900  1
  O  O195  1  0.00208567  0.12469666  0.91196513  1
  O  O196  1  0.00440630  0.37310068  0.16365525  1
  O  O197  1  -0.00420108  0.37684816  0.41435653  1
  O  O198  1  0.00927770  0.37432540  0.66065106  1
  O  O199  1  -0.00070593  0.37208812  0.91403320  1
  O  O200  1  -0.00116898  0.62083231  0.16236592  1
  O  O201  1  -0.00981939  0.62255084  0.40944150  1
  O  O202  1  0.00286209  0.62217823  0.65970169  1
  O  O203  1  -0.00820442  0.62679322  0.91075281  1
  O  O204  1  0.00063213  0.87879447  0.16616043  1
  O  O205  1  0.00332451  0.87235598  0.40675330  1
  O  O206  1  0.00124177  0.87569019  0.66022059  1
  O  O207  1  -0.00569429  0.87699830  0.91721374  1
  O  O208  1  0.24427014  0.12878385  0.16391256  1
  O  O209  1  0.25369879  0.12689694  0.41144936  1
  O  O210  1  0.24311194  0.12932107  0.66491043  1
  O  O211  1  0.25355800  0.12204622  0.91514011  1
  O  O212  1  0.24477801  0.37396509  0.16495608  1
  O  O213  1  0.24367569  0.37458344  0.40887215  1
  O  O214  1  0.25127566  0.37372092  0.66464286  1
  O  O215  1  0.25298211  0.37270709  0.91797594  1
  O  O216  1  0.25738476  0.62112784  0.16437817  1
  O  O217  1  0.24883566  0.62154265  0.41150874  1
  O  O218  1  0.25139846  0.62226707  0.65916593  1
  O  O219  1  0.26048806  0.62720682  0.91242445  1
  O  O220  1  0.24965606  0.87807459  0.16623961  1
  O  O221  1  0.24548913  0.87605318  0.40735787  1
  O  O222  1  0.24970222  0.87679297  0.65968492  1
  O  O223  1  0.25609586  0.87761372  0.91636831  1
  O  O224  1  0.50753517  0.13349437  0.16597055  1
  O  O225  1  0.49287825  0.12853586  0.41155106  1
  O  O226  1  0.49883855  0.12383830  0.66087163  1
  O  O227  1  0.49544566  0.12357442  0.91511250  1
  O  O228  1  0.50503053  0.37139002  0.16551533  1
  O  O229  1  0.50517502  0.37660435  0.40899483  1
  O  O230  1  0.49493631  0.37664971  0.65992003  1
  O  O231  1  0.50516776  0.37438820  0.91708029  1
  O  O232  1  0.49698283  0.62208312  0.16430124  1
  O  O233  1  0.51142568  0.62004103  0.41321621  1
  O  O234  1  0.50555402  0.62535733  0.66529149  1
  O  O235  1  0.49676879  0.62709733  0.92111729  1
  O  O236  1  0.51272671  0.87855626  0.16902726  1
  O  O237  1  0.50980858  0.87092060  0.41321160  1
  O  O238  1  0.50756536  0.87364376  0.65889819  1
  O  O239  1  0.49967281  0.87417119  0.91972372  1
  O  O240  1  0.74646599  0.13245480  0.16916797  1
  O  O241  1  0.75032397  0.12799294  0.41499153  1
  O  O242  1  0.74866670  0.12332007  0.65373664  1
  O  O243  1  0.75167619  0.12338031  0.91327830  1
  O  O244  1  0.74692869  0.37332251  0.16407233  1
  O  O245  1  0.75446693  0.37921704  0.41506314  1
  O  O246  1  0.74712802  0.37670596  0.66151151  1
  O  O247  1  0.74307065  0.37464750  0.91228674  1
  O  O248  1  0.74714864  0.61851008  0.16607285  1
  O  O249  1  0.74859241  0.62012219  0.41515034  1
  O  O250  1  0.73973451  0.62689159  0.66507174  1
  O  O251  1  0.75059080  0.62570496  0.91746724  1
  O  O252  1  0.73848646  0.88158684  0.16899570  1
  O  O253  1  0.74099907  0.86909112  0.41308766  1
  O  O254  1  0.74127891  0.87228689  0.65990497  1
  O  O255  1  0.74975701  0.87614292  0.92017016  1
  O  O256  1  0.12222831  0.12786629  0.05468516  1
  O  O257  1  0.12512826  0.13476808  0.28346356  1
  O  O258  1  0.13029727  0.13076183  0.54413762  1
  O  O259  1  0.12424504  0.12219474  0.79978153  1
  O  O260  1  0.12514710  0.37183158  0.04882812  1
  O  O261  1  0.12301134  0.37569860  0.29719758  1
  O  O262  1  0.12970497  0.37029004  0.54895848  1
  O  O263  1  0.13091091  0.37301584  0.78512405  1
  O  O264  1  0.12713615  0.62486999  0.03290942  1
  O  O265  1  0.12346992  0.61597591  0.29073491  1
  O  O266  1  0.12717746  0.62703420  0.52417616  1
  O  O267  1  0.12691276  0.61959452  0.78738519  1
  O  O268  1  0.12351752  0.87565574  0.03333255  1
  O  O269  1  0.12522287  0.87434589  0.29383864  1
  O  O270  1  0.12405251  0.87356269  0.52803580  1
  O  O271  1  0.12371446  0.88488564  0.78983484  1
  O  O272  1  0.37858977  0.12525342  0.03761006  1
  O  O273  1  0.37402408  0.12805236  0.29634909  1
  O  O274  1  0.37607805  0.12805732  0.53328064  1
  O  O275  1  0.37427644  0.12104324  0.80088084  1
  O  O276  1  0.37564629  0.37475532  0.05444016  1
  O  O277  1  0.37451839  0.38193082  0.28125302  1
  O  O278  1  0.37187701  0.37341142  0.54859672  1
  O  O279  1  0.37750743  0.37610934  0.78621517  1
  O  O280  1  0.37666635  0.62392156  0.05078175  1
  O  O281  1  0.38221644  0.62085280  0.28855296  1
  O  O282  1  0.38213727  0.62018852  0.53000784  1
  O  O283  1  0.38159680  0.62742189  0.79887512  1
  O  O284  1  0.38354633  0.88007578  0.04369058  1
  O  O285  1  0.38413537  0.87475285  0.28471257  1
  O  O286  1  0.37789956  0.88204073  0.52671849  1
  O  O287  1  0.37852654  0.87392407  0.79984694  1
  O  O288  1  0.62715776  0.12788378  0.05271895  1
  O  O289  1  0.62450969  0.13718889  0.29266585  1
  O  O290  1  0.61836615  0.12883445  0.52340940  1
  O  O291  1  0.61961067  0.11935851  0.78491271  1
  O  O292  1  0.62566048  0.37024846  0.05019954  1
  O  O293  1  0.62896357  0.37863549  0.30331081  1
  O  O294  1  0.62880037  0.38038613  0.52892654  1
  O  O295  1  0.62080945  0.37674851  0.79785549  1
  O  O296  1  0.62564421  0.61203802  0.03308300  1
  O  O297  1  0.62765793  0.62440142  0.29739511  1
  O  O298  1  0.62342049  0.62434732  0.54682681  1
  O  O299  1  0.62136961  0.62804114  0.80670588  1
  O  O300  1  0.62586901  0.88086488  0.04857757  1
  O  O301  1  0.62455314  0.87097479  0.29599766  1
  O  O302  1  0.62571679  0.87051692  0.54135459  1
  O  O303  1  0.62503549  0.87522697  0.80160363  1
  O  O304  1  0.87451430  0.12940855  0.05510101  1
  O  O305  1  0.87206917  0.12863836  0.28678083  1
  O  O306  1  0.87896282  0.12399639  0.52801630  1
  O  O307  1  0.87391323  0.11964371  0.79437148  1
  O  O308  1  0.87574611  0.37005969  0.04785462  1
  O  O309  1  0.87545820  0.37992988  0.30128097  1
  O  O310  1  0.87876616  0.38359866  0.53633973  1
  O  O311  1  0.87436630  0.37257040  0.78210032  1
  O  O312  1  0.86784043  0.62130487  0.03337363  1
  O  O313  1  0.86899642  0.61933467  0.29918423  1
  O  O314  1  0.87083701  0.62388082  0.53294488  1
  O  O315  1  0.86914990  0.63085542  0.80018268  1
  O  O316  1  0.86967205  0.88449657  0.04296819  1
  O  O317  1  0.86602213  0.87785701  0.28329197  1
  O  O318  1  0.87496712  0.86689029  0.52831283  1
  O  O319  1  0.87087786  0.87739977  0.80024203  1
