# generated using pymatgen
data_VFe(PbO3)2
_symmetry_space_group_name_H-M   'P 1'
_cell_length_a   15.38992396
_cell_length_b   15.38949540
_cell_length_c   18.55974983
_cell_angle_alpha   89.93193377
_cell_angle_beta   90.02624411
_cell_angle_gamma   90.00750087
_symmetry_Int_Tables_number   1
_chemical_formula_structural   VFe(PbO3)2
_chemical_formula_sum   'V32 Fe32 Pb64 O192'
_cell_volume   4395.74627120
_cell_formula_units_Z   32
loop_
 _symmetry_equiv_pos_site_id
 _symmetry_equiv_pos_as_xyz
  1  'x, y, z'
loop_
 _atom_site_type_symbol
 _atom_site_label
 _atom_site_symmetry_multiplicity
 _atom_site_fract_x
 _atom_site_fract_y
 _atom_site_fract_z
 _atom_site_occupancy
  V  V0  1  0.12355657  0.87481754  0.64049055  1
  V  V1  1  0.37343745  0.87651174  0.39655744  1
  V  V2  1  0.37357448  0.62397084  0.63523999  1
  V  V3  1  0.37373883  0.37455325  0.14401812  1
  V  V4  1  0.37325287  0.12395633  0.13672782  1
  V  V5  1  0.87451081  0.87321499  0.13905437  1
  V  V6  1  0.12637442  0.37571711  0.13990411  1
  V  V7  1  0.37773731  0.12301857  0.39305870  1
  V  V8  1  0.11626731  0.37856482  0.88840577  1
  V  V9  1  0.12808784  0.61963439  0.39068078  1
  V  V10  1  0.12730487  0.87161366  0.39382364  1
  V  V11  1  0.62945959  0.12264669  0.38463561  1
  V  V12  1  0.62700123  0.12879978  0.63545458  1
  V  V13  1  0.62623238  0.37445300  0.63274057  1
  V  V14  1  0.13329941  0.37661670  0.63683538  1
  V  V15  1  0.87380257  0.87636272  0.88832336  1
  V  V16  1  0.12438651  0.62368238  0.88832827  1
  V  V17  1  0.12519390  0.87561876  0.13463752  1
  V  V18  1  0.12806821  0.62626194  0.14143385  1
  V  V19  1  0.12716734  0.12592154  0.13377825  1
  V  V20  1  0.12885797  0.11551502  0.39234968  1
  V  V21  1  0.62560042  0.87853159  0.39315249  1
  V  V22  1  0.86926957  0.62432875  0.89237982  1
  V  V23  1  0.37618871  0.87444243  0.88738119  1
  V  V24  1  0.87596879  0.37450386  0.63616229  1
  V  V25  1  0.62987461  0.62681000  0.14687686  1
  V  V26  1  0.37654090  0.62433730  0.14565021  1
  V  V27  1  0.37342305  0.37600925  0.89080841  1
  V  V28  1  0.62427557  0.12623413  0.89483043  1
  V  V29  1  0.12515755  0.36204325  0.38757861  1
  V  V30  1  0.62339388  0.37859207  0.89447085  1
  V  V31  1  0.62652943  0.87368638  0.89168448  1
  Fe  Fe32  1  0.12189229  0.62111988  0.63326027  1
  Fe  Fe33  1  0.87712728  0.62702295  0.37974195  1
  Fe  Fe34  1  0.12148808  0.87082120  0.88127934  1
  Fe  Fe35  1  0.62351798  0.87601490  0.62837779  1
  Fe  Fe36  1  0.37596911  0.12828894  0.64065439  1
  Fe  Fe37  1  0.87273011  0.12755953  0.63606135  1
  Fe  Fe38  1  0.62077313  0.87371895  0.13478219  1
  Fe  Fe39  1  0.87245497  0.12626367  0.89057973  1
  Fe  Fe40  1  0.87746629  0.37536870  0.14043110  1
  Fe  Fe41  1  0.62460152  0.37070363  0.37620774  1
  Fe  Fe42  1  0.62610923  0.62262940  0.62486713  1
  Fe  Fe43  1  0.87964889  0.12437956  0.38474432  1
  Fe  Fe44  1  0.86983351  0.37794152  0.89013059  1
  Fe  Fe45  1  0.12556178  0.12411822  0.88060394  1
  Fe  Fe46  1  0.37046132  0.87288824  0.13232955  1
  Fe  Fe47  1  0.37283048  0.62903127  0.38499029  1
  Fe  Fe48  1  0.37138751  0.37304319  0.39120130  1
  Fe  Fe49  1  0.87952878  0.37267263  0.37903413  1
  Fe  Fe50  1  0.62217841  0.62675760  0.38530659  1
  Fe  Fe51  1  0.87842684  0.87763861  0.39670416  1
  Fe  Fe52  1  0.12287443  0.13000805  0.64467104  1
  Fe  Fe53  1  0.38014553  0.37649270  0.62747800  1
  Fe  Fe54  1  0.87970198  0.62679570  0.14962892  1
  Fe  Fe55  1  0.37814072  0.62215501  0.88671806  1
  Fe  Fe56  1  0.87961204  0.12194095  0.13260556  1
  Fe  Fe57  1  0.62262883  0.37408593  0.14843843  1
  Fe  Fe58  1  0.87482859  0.62456357  0.62967680  1
  Fe  Fe59  1  0.62255241  0.62521566  0.88619094  1
  Fe  Fe60  1  0.37535028  0.87536091  0.63426193  1
  Fe  Fe61  1  0.87271728  0.87568741  0.62835461  1
  Fe  Fe62  1  0.62515385  0.12145717  0.13585141  1
  Fe  Fe63  1  0.37907034  0.12695054  0.88374854  1
  Pb  Pb64  1  -0.00004728  0.00551162  -0.00691957  1
  Pb  Pb65  1  -0.01109606  -0.00427065  0.25764774  1
  Pb  Pb66  1  -0.00791770  0.00327611  0.50771220  1
  Pb  Pb67  1  -0.00254591  0.00611134  0.74740180  1
  Pb  Pb68  1  -0.01171105  0.24595622  -0.00019350  1
  Pb  Pb69  1  -0.01024046  0.24353929  0.24854565  1
  Pb  Pb70  1  0.00011058  0.23839249  0.50503437  1
  Pb  Pb71  1  -0.00669403  0.24165316  0.75563835  1
  Pb  Pb72  1  -0.01794742  0.50523037  0.01126427  1
  Pb  Pb73  1  -0.00305578  0.49759675  0.25227497  1
  Pb  Pb74  1  -0.00291296  0.50678621  0.49655895  1
  Pb  Pb75  1  -0.00707163  0.49633127  0.74640864  1
  Pb  Pb76  1  -0.00564795  0.74231706  0.00162476  1
  Pb  Pb77  1  -0.01106684  0.75778402  0.26114961  1
  Pb  Pb78  1  -0.00554876  0.74220777  0.50267699  1
  Pb  Pb79  1  -0.00141133  0.75024081  0.74263435  1
  Pb  Pb80  1  0.25101359  -0.00311863  -0.01038637  1
  Pb  Pb81  1  0.24423100  -0.00238767  0.24437319  1
  Pb  Pb82  1  0.25682330  0.00432074  0.51344901  1
  Pb  Pb83  1  0.24630609  0.00259951  0.74789490  1
  Pb  Pb84  1  0.25040753  0.24665102  -0.00589273  1
  Pb  Pb85  1  0.25327639  0.25345538  0.25342844  1
  Pb  Pb86  1  0.25103415  0.23739197  0.51134241  1
  Pb  Pb87  1  0.25564907  0.24231195  0.75075635  1
  Pb  Pb88  1  0.24770187  0.50173568  -0.00022279  1
  Pb  Pb89  1  0.26000925  0.49616695  0.25823564  1
  Pb  Pb90  1  0.25429122  0.49843766  0.49813853  1
  Pb  Pb91  1  0.25941874  0.50598189  0.74851602  1
  Pb  Pb92  1  0.25420561  0.75338300  -0.00310375  1
  Pb  Pb93  1  0.25134221  0.74388770  0.25231898  1
  Pb  Pb94  1  0.25086377  0.75444507  0.50535266  1
  Pb  Pb95  1  0.24548283  0.75287476  0.74836136  1
  Pb  Pb96  1  0.50551749  -0.00206647  0.00349858  1
  Pb  Pb97  1  0.49995787  -0.00651744  0.24498694  1
  Pb  Pb98  1  0.49942132  -0.00588046  0.50722911  1
  Pb  Pb99  1  0.49644078  -0.00014399  0.74411671  1
  Pb  Pb100  1  0.51185636  0.25155708  0.00762838  1
  Pb  Pb101  1  0.50058580  0.25467990  0.25177275  1
  Pb  Pb102  1  0.49251467  0.25354925  0.49726681  1
  Pb  Pb103  1  0.49699495  0.25032619  0.74708164  1
  Pb  Pb104  1  0.50667005  0.49825242  0.00654059  1
  Pb  Pb105  1  0.50637247  0.50006154  0.26057852  1
  Pb  Pb106  1  0.50185381  0.49871013  0.48617821  1
  Pb  Pb107  1  0.50237705  0.51132623  0.74862508  1
  Pb  Pb108  1  0.49837345  0.75395345  -0.00038407  1
  Pb  Pb109  1  0.49775523  0.74539274  0.25451895  1
  Pb  Pb110  1  0.50712354  0.74904986  0.50048190  1
  Pb  Pb111  1  0.50635744  0.74416050  0.74274098  1
  Pb  Pb112  1  0.74133638  0.00279745  0.00653176  1
  Pb  Pb113  1  0.75421710  0.00219518  0.24620232  1
  Pb  Pb114  1  0.75646129  -0.00388091  0.50210544  1
  Pb  Pb115  1  0.75396036  0.00008369  0.74256502  1
  Pb  Pb116  1  0.75455532  0.24956809  0.00743144  1
  Pb  Pb117  1  0.75311350  0.24847859  0.24095475  1
  Pb  Pb118  1  0.75998157  0.25144705  0.48948306  1
  Pb  Pb119  1  0.75789291  0.25361401  0.75517214  1
  Pb  Pb120  1  0.74786630  0.48682001  0.01473558  1
  Pb  Pb121  1  0.75741383  0.48851255  0.25353982  1
  Pb  Pb122  1  0.75019184  0.50231870  0.48207584  1
  Pb  Pb123  1  0.74786903  0.50025620  0.74440951  1
  Pb  Pb124  1  0.74773893  0.74919349  0.00244878  1
  Pb  Pb125  1  0.74571127  0.74184505  0.25904816  1
  Pb  Pb126  1  0.75461164  0.73723063  0.49762064  1
  Pb  Pb127  1  0.74527826  0.74632448  0.73529240  1
  O  O128  1  0.13311819  0.00041760  0.15656861  1
  O  O129  1  0.13079177  0.00178979  0.41739920  1
  O  O130  1  0.12576121  -0.00544509  0.66113121  1
  O  O131  1  0.12520911  -0.00303092  0.90904922  1
  O  O132  1  0.13129903  0.25485811  0.16063435  1
  O  O133  1  0.12735028  0.24758260  0.40778812  1
  O  O134  1  0.12058640  0.26581858  0.66837502  1
  O  O135  1  0.12820247  0.26312664  0.91155697  1
  O  O136  1  0.13137386  0.49612055  0.16717155  1
  O  O137  1  0.12679837  0.50419501  0.40615342  1
  O  O138  1  0.12012789  0.49046951  0.66661384  1
  O  O139  1  0.12753565  0.49601123  0.91894136  1
  O  O140  1  0.13184565  0.74374566  0.15826373  1
  O  O141  1  0.12852437  0.75517625  0.41348706  1
  O  O142  1  0.12483322  0.75111525  0.66236410  1
  O  O143  1  0.12411793  0.74379132  0.91410137  1
  O  O144  1  0.36747110  0.00599646  0.15796603  1
  O  O145  1  0.36781367  0.00469341  0.42113761  1
  O  O146  1  0.37455982  0.00121827  0.66527459  1
  O  O147  1  0.37644526  -0.00536202  0.90829955  1
  O  O148  1  0.37153100  0.24638050  0.16548858  1
  O  O149  1  0.36885803  0.24056358  0.41383983  1
  O  O150  1  0.37718029  0.25632502  0.66569292  1
  O  O151  1  0.38053728  0.25938873  0.91653839  1
  O  O152  1  0.37173968  0.50270339  0.16924096  1
  O  O153  1  0.36952312  0.50182253  0.41054644  1
  O  O154  1  0.37531770  0.50285965  0.66035906  1
  O  O155  1  0.38031155  0.49100330  0.91982485  1
  O  O156  1  0.36830371  0.74265576  0.16394504  1
  O  O157  1  0.37074808  0.75667063  0.41823898  1
  O  O158  1  0.37321896  0.74137730  0.65883084  1
  O  O159  1  0.37615484  0.75330179  0.91175906  1
  O  O160  1  0.62282820  -0.00354595  0.16871156  1
  O  O161  1  0.61934450  0.00761440  0.41703693  1
  O  O162  1  0.62447256  0.01080129  0.65859886  1
  O  O163  1  0.62455658  0.00061141  0.91680724  1
  O  O164  1  0.62048007  0.24483700  0.16408309  1
  O  O165  1  0.61960637  0.23745397  0.40674456  1
  O  O166  1  0.62770110  0.25175239  0.66302625  1
  O  O167  1  0.62394945  0.25009359  0.91768752  1
  O  O168  1  0.62046148  0.51078391  0.17034896  1
  O  O169  1  0.62352046  0.49754949  0.40103534  1
  O  O170  1  0.62628732  0.49273082  0.65390153  1
  O  O171  1  0.62340044  0.49563905  0.91725906  1
  O  O172  1  0.62193645  0.74727643  0.16735292  1
  O  O173  1  0.62133339  0.76251545  0.40928454  1
  O  O174  1  0.62141037  0.74777027  0.65599898  1
  O  O175  1  0.62629877  0.75276493  0.91761812  1
  O  O176  1  0.88424640  -0.00830924  0.16237483  1
  O  O177  1  0.87987412  0.00381416  0.41870567  1
  O  O178  1  0.87454373  0.00072176  0.66161874  1
  O  O179  1  0.87383661  -0.00751204  0.91007422  1
  O  O180  1  0.88064582  0.24768207  0.15879905  1
  O  O181  1  0.88196258  0.24877375  0.41153829  1
  O  O182  1  0.86851344  0.25797935  0.66413946  1
  O  O183  1  0.87021254  0.25299640  0.91899072  1
  O  O184  1  0.88017713  0.50090304  0.16880412  1
  O  O185  1  0.88061578  0.49996752  0.40286624  1
  O  O186  1  0.86832443  0.49250509  0.66086775  1
  O  O187  1  0.87281809  0.50732359  0.91833829  1
  O  O188  1  0.88239457  0.75838667  0.16757563  1
  O  O189  1  0.87972808  0.75155860  0.41104807  1
  O  O190  1  0.87626341  0.75110674  0.65753501  1
  O  O191  1  0.87427218  0.74728974  0.91723825  1
  O  O192  1  0.01124237  0.12502937  0.15776405  1
  O  O193  1  0.01222751  0.12471612  0.41483222  1
  O  O194  1  -0.00301252  0.13035670  0.66759116  1
  O  O195  1  0.00183124  0.12764347  0.91358958  1
  O  O196  1  0.01149036  0.37640833  0.16046745  1
  O  O197  1  0.01227236  0.37641606  0.41348900  1
  O  O198  1  -0.00966231  0.37699045  0.65702463  1
  O  O199  1  0.00247198  0.37914809  0.90774458  1
  O  O200  1  0.01491271  0.62250884  0.16717091  1
  O  O201  1  0.00928145  0.62991869  0.41064467  1
  O  O202  1  -0.00179177  0.61912551  0.66552989  1
  O  O203  1  -0.00333523  0.62392096  0.91702571  1
  O  O204  1  0.00676722  0.87280650  0.16406166  1
  O  O205  1  0.01410016  0.88035247  0.41821329  1
  O  O206  1  0.00482085  0.87464709  0.66031853  1
  O  O207  1  -0.00917550  0.86985310  0.91098505  1
  O  O208  1  0.25111186  0.12758416  0.16587374  1
  O  O209  1  0.24667790  0.12539030  0.42011996  1
  O  O210  1  0.24839749  0.13007625  0.66715327  1
  O  O211  1  0.25265526  0.12943134  0.91074142  1
  O  O212  1  0.24986933  0.37477943  0.17047674  1
  O  O213  1  0.23825363  0.37598536  0.41646901  1
  O  O214  1  0.24823204  0.37870297  0.65260844  1
  O  O215  1  0.25601070  0.37764394  0.91081635  1
  O  O216  1  0.24787955  0.62111915  0.16993859  1
  O  O217  1  0.24406062  0.63049832  0.41716019  1
  O  O218  1  0.25251514  0.62051817  0.66150829  1
  O  O219  1  0.24854878  0.62005908  0.91464426  1
  O  O220  1  0.24521229  0.87242479  0.16630262  1
  O  O221  1  0.24511571  0.87870492  0.42347148  1
  O  O222  1  0.24609253  0.87195355  0.66469426  1
  O  O223  1  0.25546981  0.87189281  0.90818091  1
  O  O224  1  0.48780382  0.12309726  0.16106767  1
  O  O225  1  0.49339763  0.12221570  0.41081344  1
  O  O226  1  0.50887562  0.13116606  0.66214070  1
  O  O227  1  0.50495128  0.12542388  0.91763861  1
  O  O228  1  0.49147595  0.37686147  0.16907797  1
  O  O229  1  0.49962023  0.36878642  0.40823525  1
  O  O230  1  0.50956814  0.37306675  0.65537542  1
  O  O231  1  0.50422953  0.37408804  0.91969449  1
  O  O232  1  0.49388198  0.62660758  0.16535261  1
  O  O233  1  0.49701435  0.62998544  0.41120980  1
  O  O234  1  0.49466654  0.62169318  0.65622657  1
  O  O235  1  0.50045067  0.62462172  0.92166438  1
  O  O236  1  0.49381735  0.87366771  0.16356783  1
  O  O237  1  0.49839794  0.88355706  0.41632561  1
  O  O238  1  0.50027515  0.87670919  0.66335678  1
  O  O239  1  0.49815689  0.87390088  0.91309791  1
  O  O240  1  0.75341955  0.11810533  0.15936951  1
  O  O241  1  0.74526488  0.12313510  0.40182901  1
  O  O242  1  0.74363927  0.12903287  0.66339716  1
  O  O243  1  0.74196164  0.12427004  0.91795676  1
  O  O244  1  0.75052554  0.37701315  0.16459653  1
  O  O245  1  0.75078268  0.36914605  0.40295142  1
  O  O246  1  0.74543929  0.37421790  0.66362216  1
  O  O247  1  0.74056593  0.37564759  0.92127006  1
  O  O248  1  0.74655479  0.63011947  0.16523564  1
  O  O249  1  0.75023210  0.62973120  0.40397700  1
  O  O250  1  0.74969583  0.62269072  0.65787250  1
  O  O251  1  0.75354091  0.62703363  0.91483103  1
  O  O252  1  0.75891277  0.87455814  0.16030430  1
  O  O253  1  0.74219201  0.88558807  0.40828843  1
  O  O254  1  0.74704882  0.87748422  0.65958653  1
  O  O255  1  0.75447545  0.87182901  0.91789918  1
  O  O256  1  0.13110918  0.12875790  0.04267617  1
  O  O257  1  0.13147735  0.11494056  0.30152966  1
  O  O258  1  0.12479710  0.13664831  0.54332670  1
  O  O259  1  0.12161513  0.12938304  0.78027387  1
  O  O260  1  0.13137234  0.37935772  0.04936733  1
  O  O261  1  0.12656175  0.36689781  0.29621419  1
  O  O262  1  0.12352223  0.37581671  0.54609619  1
  O  O263  1  0.12293404  0.38333532  0.79812632  1
  O  O264  1  0.12998537  0.61956860  0.05039770  1
  O  O265  1  0.13042066  0.62870139  0.29983295  1
  O  O266  1  0.11719670  0.62049553  0.53427232  1
  O  O267  1  0.12303158  0.61983546  0.79771644  1
  O  O268  1  0.12592149  0.87295135  0.04357362  1
  O  O269  1  0.13014388  0.87683168  0.30272211  1
  O  O270  1  0.12673706  0.87267165  0.54954347  1
  O  O271  1  0.12495927  0.86687091  0.78268983  1
  O  O272  1  0.37111750  0.12857237  0.04595876  1
  O  O273  1  0.37197052  0.11932626  0.30250793  1
  O  O274  1  0.36840436  0.13011120  0.53942907  1
  O  O275  1  0.38103177  0.13565628  0.78437475  1
  O  O276  1  0.37259543  0.37509594  0.05309582  1
  O  O277  1  0.36432627  0.36860510  0.29002231  1
  O  O278  1  0.37822969  0.37316669  0.52745969  1
  O  O279  1  0.37836212  0.37856146  0.80000275  1
  O  O280  1  0.37218898  0.62178592  0.05493554  1
  O  O281  1  0.36888935  0.63171624  0.28486020  1
  O  O282  1  0.37055058  0.62296945  0.54446473  1
  O  O283  1  0.37890886  0.61175288  0.78750804  1
  O  O284  1  0.36798410  0.86919832  0.03331613  1
  O  O285  1  0.36954356  0.87848826  0.30557234  1
  O  O286  1  0.37117926  0.88065415  0.53445151  1
  O  O287  1  0.37828987  0.87259134  0.79675564  1
  O  O288  1  0.62019811  0.11603218  0.03542469  1
  O  O289  1  0.62144718  0.11619441  0.29392862  1
  O  O290  1  0.62779094  0.13076416  0.54488917  1
  O  O291  1  0.62444001  0.12634859  0.80462043  1
  O  O292  1  0.62092904  0.38184201  0.04622068  1
  O  O293  1  0.61890769  0.37255910  0.27468855  1
  O  O294  1  0.63059385  0.36956856  0.54228504  1
  O  O295  1  0.62357144  0.37724861  0.80403241  1
  O  O296  1  0.62473711  0.62587751  0.05575516  1
  O  O297  1  0.61857321  0.63844234  0.28370986  1
  O  O298  1  0.62751399  0.62939139  0.52433566  1
  O  O299  1  0.61560500  0.62299835  0.78676828  1
  O  O300  1  0.62491821  0.87854556  0.03481029  1
  O  O301  1  0.61902353  0.88362859  0.30206024  1
  O  O302  1  0.62010245  0.88217044  0.52838988  1
  O  O303  1  0.62751223  0.87579491  0.80123368  1
  O  O304  1  0.88153399  0.12354015  0.03168267  1
  O  O305  1  0.88787772  0.11900995  0.28379643  1
  O  O306  1  0.87981788  0.13171606  0.53562113  1
  O  O307  1  0.87219443  0.13204706  0.79004339  1
  O  O308  1  0.87294034  0.38415500  0.03794476  1
  O  O309  1  0.88501575  0.37068169  0.27821431  1
  O  O310  1  0.87121211  0.37227825  0.54503897  1
  O  O311  1  0.86337604  0.37795043  0.79079917  1
  O  O312  1  0.88578402  0.62679351  0.04786724  1
  O  O313  1  0.88035314  0.63530558  0.27692527  1
  O  O314  1  0.87940842  0.62523520  0.52878261  1
  O  O315  1  0.87200630  0.62412381  0.80192109  1
  O  O316  1  0.87776939  0.87131517  0.04816396  1
  O  O317  1  0.89025595  0.88075092  0.29418687  1
  O  O318  1  0.87471957  0.88324647  0.52685217  1
  O  O319  1  0.87000740  0.87261226  0.79803216  1
