# generated using pymatgen
data_VFe(PbO3)2
_symmetry_space_group_name_H-M   'P 1'
_cell_length_a   15.38659636
_cell_length_b   15.37373718
_cell_length_c   18.54296178
_cell_angle_alpha   89.96875894
_cell_angle_beta   90.02868834
_cell_angle_gamma   89.99651076
_symmetry_Int_Tables_number   1
_chemical_formula_structural   VFe(PbO3)2
_chemical_formula_sum   'V32 Fe32 Pb64 O192'
_cell_volume   4386.32691306
_cell_formula_units_Z   32
loop_
 _symmetry_equiv_pos_site_id
 _symmetry_equiv_pos_as_xyz
  1  'x, y, z'
loop_
 _atom_site_type_symbol
 _atom_site_label
 _atom_site_symmetry_multiplicity
 _atom_site_fract_x
 _atom_site_fract_y
 _atom_site_fract_z
 _atom_site_occupancy
  V  V0  1  0.12663957  0.87510553  0.63824151  1
  V  V1  1  0.37360836  0.88101984  0.88661301  1
  V  V2  1  0.88218414  0.62105211  0.38862530  1
  V  V3  1  0.62636094  0.62633460  0.39248094  1
  V  V4  1  0.62831508  0.87525545  0.63579108  1
  V  V5  1  0.62291926  0.37616947  0.13764029  1
  V  V6  1  0.37819414  0.37651596  0.39409109  1
  V  V7  1  0.87675115  0.62551463  0.64062515  1
  V  V8  1  0.37570509  0.12694213  0.39000728  1
  V  V9  1  0.87634890  0.37209842  0.63524288  1
  V  V10  1  0.87464217  0.37151305  0.88924728  1
  V  V11  1  0.12230974  0.12574585  0.88978634  1
  V  V12  1  0.62463777  0.87747325  0.14267376  1
  V  V13  1  0.62472263  0.37384017  0.88287329  1
  V  V14  1  0.62536342  0.62590829  0.13808377  1
  V  V15  1  0.62425970  0.37521691  0.39716476  1
  V  V16  1  0.87510832  0.12365576  0.88950039  1
  V  V17  1  0.37331893  0.37753361  0.64423255  1
  V  V18  1  0.12635714  0.62528776  0.64561187  1
  V  V19  1  0.37580687  0.37503221  0.13460983  1
  V  V20  1  0.12691743  0.62416704  0.13437200  1
  V  V21  1  0.87324380  0.12496646  0.14441120  1
  V  V22  1  0.62557841  0.87512840  0.88567864  1
  V  V23  1  0.37869261  0.87273569  0.39037283  1
  V  V24  1  0.36958221  0.12431609  0.64385207  1
  V  V25  1  0.37616596  0.87472522  0.13690328  1
  V  V26  1  0.13320256  0.62557294  0.38771620  1
  V  V27  1  0.12325910  0.12453501  0.63616010  1
  V  V28  1  0.37734416  0.87646358  0.64214760  1
  V  V29  1  0.37755908  0.12504959  0.13864833  1
  V  V30  1  0.62283839  0.12386870  0.39469133  1
  V  V31  1  0.12497160  0.37360304  0.14017292  1
  Fe  Fe32  1  0.37932152  0.62245877  0.38654989  1
  Fe  Fe33  1  0.62408119  0.12375494  0.63502741  1
  Fe  Fe34  1  0.12675475  0.87434663  0.13589947  1
  Fe  Fe35  1  0.87277919  0.87139892  0.38267984  1
  Fe  Fe36  1  0.12295310  0.62582927  0.88172450  1
  Fe  Fe37  1  0.87348459  0.87859755  0.88313874  1
  Fe  Fe38  1  0.12874514  0.12541239  0.37699507  1
  Fe  Fe39  1  0.37495922  0.12427393  0.88110324  1
  Fe  Fe40  1  0.87596442  0.62248712  0.13295155  1
  Fe  Fe41  1  0.87770171  0.12277225  0.62530387  1
  Fe  Fe42  1  0.62592017  0.62625597  0.64569035  1
  Fe  Fe43  1  0.87789477  0.87378818  0.63365443  1
  Fe  Fe44  1  0.62960703  0.12527519  0.88588180  1
  Fe  Fe45  1  0.37249837  0.62905707  0.64795476  1
  Fe  Fe46  1  0.37637948  0.62388174  0.13567629  1
  Fe  Fe47  1  0.12381248  0.87790134  0.89064241  1
  Fe  Fe48  1  0.87299850  0.87311559  0.14085943  1
  Fe  Fe49  1  0.87406533  0.37469225  0.13851673  1
  Fe  Fe50  1  0.62436101  0.12679684  0.13507012  1
  Fe  Fe51  1  0.12889807  0.87029136  0.38077090  1
  Fe  Fe52  1  0.62154384  0.87365514  0.38566727  1
  Fe  Fe53  1  0.87195900  0.37788695  0.38612859  1
  Fe  Fe54  1  0.12509519  0.12575857  0.14823513  1
  Fe  Fe55  1  0.12131461  0.37284703  0.87862724  1
  Fe  Fe56  1  0.37434292  0.37076548  0.87934722  1
  Fe  Fe57  1  0.62489436  0.37602338  0.63518874  1
  Fe  Fe58  1  0.62818913  0.62596116  0.87819762  1
  Fe  Fe59  1  0.87469817  0.12717425  0.39201083  1
  Fe  Fe60  1  0.12723913  0.37787161  0.38535048  1
  Fe  Fe61  1  0.12436047  0.37661434  0.64370692  1
  Fe  Fe62  1  0.87321663  0.62634547  0.88646121  1
  Fe  Fe63  1  0.37610416  0.62636410  0.87822557  1
  Pb  Pb64  1  -0.00156756  -0.01139673  0.00681069  1
  Pb  Pb65  1  0.00354268  -0.00837035  0.25044366  1
  Pb  Pb66  1  -0.00156739  -0.00189791  0.48608623  1
  Pb  Pb67  1  -0.00464253  -0.01113513  0.74773345  1
  Pb  Pb68  1  -0.00120199  0.24764588  0.00457270  1
  Pb  Pb69  1  -0.01273230  0.24420311  0.26026549  1
  Pb  Pb70  1  0.00112491  0.24820226  0.48917562  1
  Pb  Pb71  1  0.00322678  0.25336834  0.74532048  1
  Pb  Pb72  1  -0.00249092  0.50350168  -0.00540293  1
  Pb  Pb73  1  0.00189710  0.49229512  0.24848167  1
  Pb  Pb74  1  0.00653665  0.48910330  0.50250202  1
  Pb  Pb75  1  0.00025905  0.50843434  0.75514020  1
  Pb  Pb76  1  -0.00487109  0.75149616  -0.00658371  1
  Pb  Pb77  1  -0.00190182  0.75482895  0.24402635  1
  Pb  Pb78  1  -0.00344917  0.75727819  0.49738502  1
  Pb  Pb79  1  -0.00000475  0.74867878  0.75563274  1
  Pb  Pb80  1  0.23110472  0.00926956  0.01130003  1
  Pb  Pb81  1  0.24366961  -0.00123991  0.25091174  1
  Pb  Pb82  1  0.24651529  -0.00133290  0.49288745  1
  Pb  Pb83  1  0.24157471  -0.00419424  0.75382532  1
  Pb  Pb84  1  0.24972729  0.25060215  -0.00617885  1
  Pb  Pb85  1  0.24306157  0.25256470  0.25277321  1
  Pb  Pb86  1  0.24243123  0.25470868  0.49963720  1
  Pb  Pb87  1  0.25288066  0.25377732  0.75384333  1
  Pb  Pb88  1  0.25084401  0.50067348  -0.01533297  1
  Pb  Pb89  1  0.24897205  0.49643689  0.24906312  1
  Pb  Pb90  1  0.25068705  0.49561389  0.50696677  1
  Pb  Pb91  1  0.25307037  0.49756472  0.75618302  1
  Pb  Pb92  1  0.24817386  0.74928789  -0.00747019  1
  Pb  Pb93  1  0.24885128  0.74996649  0.24744044  1
  Pb  Pb94  1  0.26108427  0.74361480  0.50398266  1
  Pb  Pb95  1  0.23806627  0.75158851  0.75782331  1
  Pb  Pb96  1  0.50617779  0.00704876  -0.00358409  1
  Pb  Pb97  1  0.50481019  -0.00647697  0.25211979  1
  Pb  Pb98  1  0.50410730  0.00333202  0.50415576  1
  Pb  Pb99  1  0.50019559  0.01043259  0.75238466  1
  Pb  Pb100  1  0.50361656  0.24377277  -0.00710763  1
  Pb  Pb101  1  0.49890828  0.25086465  0.24728312  1
  Pb  Pb102  1  0.50559220  0.24947584  0.50954286  1
  Pb  Pb103  1  0.49470131  0.24708396  0.74953655  1
  Pb  Pb104  1  0.49189263  0.50787784  -0.00864517  1
  Pb  Pb105  1  0.49525094  0.50497046  0.25135498  1
  Pb  Pb106  1  0.50677543  0.50398165  0.51182884  1
  Pb  Pb107  1  0.50100835  0.50545001  0.74925689  1
  Pb  Pb108  1  0.49619159  0.74562309  -0.00570439  1
  Pb  Pb109  1  0.49985991  0.74651523  0.25247902  1
  Pb  Pb110  1  0.49906237  0.73440787  0.50939666  1
  Pb  Pb111  1  0.49919749  0.74379800  0.75234405  1
  Pb  Pb112  1  0.75313161  -0.00516883  0.00225381  1
  Pb  Pb113  1  0.75929230  0.00187996  0.25793594  1
  Pb  Pb114  1  0.76259529  -0.00492381  0.49914705  1
  Pb  Pb115  1  0.75486458  0.00139592  0.74216505  1
  Pb  Pb116  1  0.75400147  0.25456495  0.00333808  1
  Pb  Pb117  1  0.75640827  0.24945863  0.25714508  1
  Pb  Pb118  1  0.75084775  0.24459389  0.50258272  1
  Pb  Pb119  1  0.73992112  0.23997330  0.74367882  1
  Pb  Pb120  1  0.75608741  0.50247408  -0.00221284  1
  Pb  Pb121  1  0.75425766  0.49533209  0.24851613  1
  Pb  Pb122  1  0.73943520  0.50320240  0.50639442  1
  Pb  Pb123  1  0.75096773  0.50446383  0.74914531  1
  Pb  Pb124  1  0.75935536  0.74896628  -0.00219242  1
  Pb  Pb125  1  0.75198954  0.75542678  0.25166920  1
  Pb  Pb126  1  0.75097932  0.75441827  0.49983959  1
  Pb  Pb127  1  0.76240129  0.74641743  0.75439321  1
  O  O128  1  0.12853868  -0.00158465  0.16837287  1
  O  O129  1  0.13104166  -0.00277012  0.40539308  1
  O  O130  1  0.12671207  0.00309732  0.66253328  1
  O  O131  1  0.12214134  0.00952869  0.91723273  1
  O  O132  1  0.12970273  0.25792273  0.16317993  1
  O  O133  1  0.13064061  0.25185097  0.41004291  1
  O  O134  1  0.12339685  0.24322710  0.65917674  1
  O  O135  1  0.11849565  0.24334061  0.91531056  1
  O  O136  1  0.12881692  0.49904227  0.16374555  1
  O  O137  1  0.12695928  0.50987191  0.41716579  1
  O  O138  1  0.12238457  0.50769695  0.66665774  1
  O  O139  1  0.12196520  0.49767785  0.90705238  1
  O  O140  1  0.12917088  0.74239550  0.15749682  1
  O  O141  1  0.12671288  0.74017814  0.41486404  1
  O  O142  1  0.12449049  0.74978607  0.66595368  1
  O  O143  1  0.12580736  0.75194606  0.91475504  1
  O  O144  1  0.38087270  -0.00570899  0.16297993  1
  O  O145  1  0.37591726  -0.00158979  0.41369702  1
  O  O146  1  0.36937490  -0.00440194  0.66775461  1
  O  O147  1  0.37973292  -0.00338994  0.91070384  1
  O  O148  1  0.37834210  0.25285967  0.16505206  1
  O  O149  1  0.37508939  0.25407192  0.41916304  1
  O  O150  1  0.37129296  0.25020924  0.66382019  1
  O  O151  1  0.37479949  0.24726599  0.91415122  1
  O  O152  1  0.37814336  0.49523716  0.16356958  1
  O  O153  1  0.37783495  0.49400625  0.41658045  1
  O  O154  1  0.37059369  0.49577473  0.66423168  1
  O  O155  1  0.37736307  0.49740407  0.90592238  1
  O  O156  1  0.37980645  0.75564718  0.16201832  1
  O  O157  1  0.37785175  0.75338035  0.41554127  1
  O  O158  1  0.37044573  0.76196251  0.66880752  1
  O  O159  1  0.37939056  0.75916753  0.90965858  1
  O  O160  1  0.62160611  -0.00516583  0.16303496  1
  O  O161  1  0.61682715  0.00573024  0.41209744  1
  O  O162  1  0.62073576  -0.00788895  0.66292201  1
  O  O163  1  0.62522150  -0.00558196  0.91314898  1
  O  O164  1  0.62099118  0.25786489  0.16092374  1
  O  O165  1  0.61898814  0.24795323  0.41992805  1
  O  O166  1  0.62423055  0.25115252  0.66152990  1
  O  O167  1  0.63107684  0.25668848  0.91262679  1
  O  O168  1  0.62162492  0.49917101  0.16417653  1
  O  O169  1  0.62151806  0.50317040  0.41989275  1
  O  O170  1  0.62682766  0.49785139  0.66769188  1
  O  O171  1  0.63062638  0.49006447  0.90574300  1
  O  O172  1  0.62287469  0.74634663  0.16241529  1
  O  O173  1  0.62184971  0.74308930  0.41364664  1
  O  O174  1  0.61974263  0.76160426  0.66256714  1
  O  O175  1  0.62585458  0.75792789  0.90933979  1
  O  O176  1  0.87150630  0.00571785  0.16856825  1
  O  O177  1  0.87211558  -0.00193087  0.40801163  1
  O  O178  1  0.87713451  -0.00069238  0.65896218  1
  O  O179  1  0.87354382  0.00776047  0.91349293  1
  O  O180  1  0.87222301  0.24717844  0.16818145  1
  O  O181  1  0.87169429  0.25414789  0.41670236  1
  O  O182  1  0.87975762  0.25509964  0.65123365  1
  O  O183  1  0.87554501  0.24708453  0.91868155  1
  O  O184  1  0.87422562  0.49993150  0.16745630  1
  O  O185  1  0.87005071  0.50811596  0.41649021  1
  O  O186  1  0.87773317  0.50474979  0.66410006  1
  O  O187  1  0.87322857  0.49005746  0.90739592  1
  O  O188  1  0.87186678  0.74501415  0.16457620  1
  O  O189  1  0.87114319  0.73807553  0.41505479  1
  O  O190  1  0.87793376  0.74579816  0.66267208  1
  O  O191  1  0.87148310  0.75368879  0.91131328  1
  O  O192  1  -0.00808306  0.12632474  0.16851590  1
  O  O193  1  0.00425568  0.12611346  0.40595737  1
  O  O194  1  0.00657752  0.12312473  0.65732669  1
  O  O195  1  -0.00455877  0.12611641  0.91792852  1
  O  O196  1  0.00745296  0.37614845  0.16197258  1
  O  O197  1  0.00026402  0.38107310  0.41231328  1
  O  O198  1  -0.00748601  0.37964481  0.66523425  1
  O  O199  1  -0.00753018  0.36911344  0.91162813  1
  O  O200  1  0.01000816  0.62081895  0.16037255  1
  O  O201  1  -0.00189710  0.62417886  0.40781149  1
  O  O202  1  -0.00095883  0.62727151  0.66661051  1
  O  O203  1  -0.00211156  0.62387880  0.91410029  1
  O  O204  1  0.00052782  0.87395644  0.16207338  1
  O  O205  1  0.00126176  0.86772425  0.40710561  1
  O  O206  1  0.00656509  0.87481615  0.66112496  1
  O  O207  1  -0.00222616  0.88077894  0.91537690  1
  O  O208  1  0.26161928  0.12436679  0.16691661  1
  O  O209  1  0.25635235  0.12585476  0.41423443  1
  O  O210  1  0.24389792  0.12431873  0.66707041  1
  O  O211  1  0.24133153  0.12635321  0.90793924  1
  O  O212  1  0.25113642  0.37700339  0.16280516  1
  O  O213  1  0.25769991  0.37858917  0.41901530  1
  O  O214  1  0.25243000  0.37415819  0.66731622  1
  O  O215  1  0.24663510  0.36968581  0.90841024  1
  O  O216  1  0.24600325  0.62216949  0.16024422  1
  O  O217  1  0.24978072  0.62463405  0.41101863  1
  O  O218  1  0.24274395  0.62752100  0.66627223  1
  O  O219  1  0.25149655  0.62711028  0.90658149  1
  O  O220  1  0.26001725  0.87389206  0.16048985  1
  O  O221  1  0.25943781  0.87156976  0.41489831  1
  O  O222  1  0.24788873  0.87701177  0.66812906  1
  O  O223  1  0.25878041  0.87822763  0.91062801  1
  O  O224  1  0.49780315  0.12538738  0.16899569  1
  O  O225  1  0.49696654  0.12743698  0.42190847  1
  O  O226  1  0.49344679  0.12221454  0.66357176  1
  O  O227  1  0.50270588  0.12552569  0.91130866  1
  O  O228  1  0.50175313  0.37646523  0.16496779  1
  O  O229  1  0.49600291  0.37428190  0.42175553  1
  O  O230  1  0.49201330  0.37419400  0.66203282  1
  O  O231  1  0.50881285  0.37076019  0.90154822  1
  O  O232  1  0.50689952  0.62359365  0.16661953  1
  O  O233  1  0.50496574  0.62335106  0.41885434  1
  O  O234  1  0.49871262  0.62783129  0.66734745  1
  O  O235  1  0.50375027  0.62580474  0.90787412  1
  O  O236  1  0.50111584  0.87266351  0.16662837  1
  O  O237  1  0.49372753  0.87564366  0.41751578  1
  O  O238  1  0.49397740  0.87891906  0.66153224  1
  O  O239  1  0.50274573  0.87689839  0.91010349  1
  O  O240  1  0.75117374  0.12600304  0.16664456  1
  O  O241  1  0.73874259  0.12666642  0.41294702  1
  O  O242  1  0.75255981  0.12375734  0.65694736  1
  O  O243  1  0.75849789  0.12733507  0.91402999  1
  O  O244  1  0.73998287  0.37747303  0.16221249  1
  O  O245  1  0.74372462  0.37730495  0.41793494  1
  O  O246  1  0.76113184  0.37850992  0.65957937  1
  O  O247  1  0.75370546  0.37008374  0.91458198  1
  O  O248  1  0.74015006  0.62151232  0.16304993  1
  O  O249  1  0.74459512  0.62306001  0.41457898  1
  O  O250  1  0.75763250  0.62763146  0.66184357  1
  O  O251  1  0.74782550  0.62323095  0.91443216  1
  O  O252  1  0.74059025  0.87314788  0.16515989  1
  O  O253  1  0.74626617  0.87057778  0.41355224  1
  O  O254  1  0.74423819  0.87586559  0.65397245  1
  O  O255  1  0.74375692  0.87891936  0.91327657  1
  O  O256  1  0.12895055  0.12211501  0.04729352  1
  O  O257  1  0.13455075  0.12986221  0.27569767  1
  O  O258  1  0.12922912  0.12181136  0.54547526  1
  O  O259  1  0.11576782  0.12542241  0.79917651  1
  O  O260  1  0.12582106  0.37528656  0.04946903  1
  O  O261  1  0.13480662  0.38295553  0.28566722  1
  O  O262  1  0.12961369  0.38494953  0.54282483  1
  O  O263  1  0.11873087  0.36668216  0.77792999  1
  O  O264  1  0.12686745  0.62014684  0.04373189  1
  O  O265  1  0.13087619  0.62465800  0.29666391  1
  O  O266  1  0.12323957  0.62722522  0.55456749  1
  O  O267  1  0.11719313  0.63267769  0.78093987  1
  O  O268  1  0.13124233  0.88634060  0.03500415  1
  O  O269  1  0.13503981  0.86495697  0.28086191  1
  O  O270  1  0.12990124  0.87336948  0.54715681  1
  O  O271  1  0.12788676  0.88107800  0.78962343  1
  O  O272  1  0.37832591  0.12581466  0.04747978  1
  O  O273  1  0.38013412  0.12887705  0.29941550  1
  O  O274  1  0.36800256  0.12261706  0.55291781  1
  O  O275  1  0.37795356  0.12716255  0.78115431  1
  O  O276  1  0.37667815  0.37438817  0.04393453  1
  O  O277  1  0.37885249  0.37392515  0.30324332  1
  O  O278  1  0.36908627  0.37673204  0.55272411  1
  O  O279  1  0.36985123  0.36869449  0.77930780  1
  O  O280  1  0.38589053  0.62412526  0.03649929  1
  O  O281  1  0.38497794  0.62393412  0.28702861  1
  O  O282  1  0.37389889  0.63589801  0.54572231  1
  O  O283  1  0.37618642  0.62690261  0.77716850  1
  O  O284  1  0.37945825  0.87537403  0.04659694  1
  O  O285  1  0.37921101  0.87279880  0.29919268  1
  O  O286  1  0.37255945  0.87441475  0.55108846  1
  O  O287  1  0.37416995  0.88076814  0.79566244  1
  O  O288  1  0.61916571  0.12447479  0.03617401  1
  O  O289  1  0.61780095  0.12905849  0.30371381  1
  O  O290  1  0.61681752  0.12349663  0.53539262  1
  O  O291  1  0.63017125  0.12522425  0.78548321  1
  O  O292  1  0.62122144  0.37947445  0.04722881  1
  O  O293  1  0.62085398  0.37555710  0.30621056  1
  O  O294  1  0.62020355  0.38159782  0.53478200  1
  O  O295  1  0.63271761  0.37020075  0.79188424  1
  O  O296  1  0.62349571  0.62428704  0.04744136  1
  O  O297  1  0.62417906  0.62261317  0.30145761  1
  O  O298  1  0.62127097  0.62146999  0.54386444  1
  O  O299  1  0.63016027  0.62846843  0.77730760  1
  O  O300  1  0.62291438  0.87423843  0.05215011  1
  O  O301  1  0.61838909  0.87367058  0.28616076  1
  O  O302  1  0.62121438  0.87619092  0.54442520  1
  O  O303  1  0.62751254  0.87689686  0.79499458  1
  O  O304  1  0.87412752  0.12594441  0.05327939  1
  O  O305  1  0.86540942  0.13574374  0.29012733  1
  O  O306  1  0.87340071  0.12190258  0.52467411  1
  O  O307  1  0.87784875  0.12612170  0.79864170  1
  O  O308  1  0.87105586  0.36869601  0.03908578  1
  O  O309  1  0.87012256  0.37323055  0.28528959  1
  O  O310  1  0.87950632  0.38166131  0.54442644  1
  O  O311  1  0.87174705  0.36496611  0.79880991  1
  O  O312  1  0.87114561  0.61897182  0.03281455  1
  O  O313  1  0.87529618  0.62102545  0.29780021  1
  O  O314  1  0.88004422  0.62386232  0.54989215  1
  O  O315  1  0.87305701  0.62958578  0.78504483  1
  O  O316  1  0.86646521  0.88253499  0.04060770  1
  O  O317  1  0.86784502  0.87046763  0.28110673  1
  O  O318  1  0.87543101  0.86873413  0.53297098  1
  O  O319  1  0.87375891  0.87941781  0.78245290  1
