# generated using pymatgen
data_VFe(PbO3)2
_symmetry_space_group_name_H-M   'P 1'
_cell_length_a   15.39408049
_cell_length_b   15.37957662
_cell_length_c   18.50208343
_cell_angle_alpha   90.01446795
_cell_angle_beta   89.96425597
_cell_angle_gamma   90.00332201
_symmetry_Int_Tables_number   1
_chemical_formula_structural   VFe(PbO3)2
_chemical_formula_sum   'V32 Fe32 Pb64 O192'
_cell_volume   4380.44940912
_cell_formula_units_Z   32
loop_
 _symmetry_equiv_pos_site_id
 _symmetry_equiv_pos_as_xyz
  1  'x, y, z'
loop_
 _atom_site_type_symbol
 _atom_site_label
 _atom_site_symmetry_multiplicity
 _atom_site_fract_x
 _atom_site_fract_y
 _atom_site_fract_z
 _atom_site_occupancy
  V  V0  1  0.62458009  0.87410351  0.14015614  1
  V  V1  1  0.37338505  0.62470029  0.14748846  1
  V  V2  1  0.37311120  0.11979578  0.89049363  1
  V  V3  1  0.12635752  0.87362349  0.89346540  1
  V  V4  1  0.11937468  0.88523010  0.38706462  1
  V  V5  1  0.12099339  0.62614509  0.13814195  1
  V  V6  1  0.87074773  0.87391663  0.88745977  1
  V  V7  1  0.12449882  0.87496081  0.63875258  1
  V  V8  1  0.12214905  0.37764392  0.39065105  1
  V  V9  1  0.12893405  0.62724444  0.89111893  1
  V  V10  1  0.37418621  0.62464547  0.89066210  1
  V  V11  1  0.87620921  0.37163184  0.39600383  1
  V  V12  1  0.62764886  0.87479731  0.39209522  1
  V  V13  1  0.12000584  0.62986386  0.38807849  1
  V  V14  1  0.87325138  0.12605550  0.13498886  1
  V  V15  1  0.38434395  0.12634515  0.39550483  1
  V  V16  1  0.37255288  0.37161188  0.63520729  1
  V  V17  1  0.37779465  0.37282507  0.89034663  1
  V  V18  1  0.12563924  0.12682004  0.64323539  1
  V  V19  1  0.87258865  0.37560055  0.13229901  1
  V  V20  1  0.11902858  0.13133481  0.38731922  1
  V  V21  1  0.87390964  0.62242220  0.39459763  1
  V  V22  1  0.62269548  0.62731079  0.88693087  1
  V  V23  1  0.87797040  0.12431302  0.39397319  1
  V  V24  1  0.13052424  0.12489133  0.13477726  1
  V  V25  1  0.37616976  0.87176971  0.88993574  1
  V  V26  1  0.62540225  0.37522467  0.14061712  1
  V  V27  1  0.87321771  0.12218275  0.64573777  1
  V  V28  1  0.37431693  0.62285227  0.63373569  1
  V  V29  1  0.12694046  0.62411769  0.63908315  1
  V  V30  1  0.62551232  0.62587772  0.14437004  1
  V  V31  1  0.62580428  0.62415852  0.63322401  1
  Fe  Fe32  1  0.62805198  0.12435105  0.13558960  1
  Fe  Fe33  1  0.87715710  0.12390226  0.87791425  1
  Fe  Fe34  1  0.87694203  0.62761253  0.88521321  1
  Fe  Fe35  1  0.37596113  0.37447339  0.14332764  1
  Fe  Fe36  1  0.37348431  0.62273806  0.38363727  1
  Fe  Fe37  1  0.37164487  0.12496812  0.62711295  1
  Fe  Fe38  1  0.62650792  0.62446244  0.38448855  1
  Fe  Fe39  1  0.37390161  0.37269464  0.38085178  1
  Fe  Fe40  1  0.62501787  0.87229623  0.63797903  1
  Fe  Fe41  1  0.63326561  0.12506230  0.39377386  1
  Fe  Fe42  1  0.12434033  0.37541860  0.13205695  1
  Fe  Fe43  1  0.12838166  0.12258328  0.88521905  1
  Fe  Fe44  1  0.62107752  0.37670345  0.87790921  1
  Fe  Fe45  1  0.37726676  0.87575044  0.13906638  1
  Fe  Fe46  1  0.87799458  0.87572263  0.63487547  1
  Fe  Fe47  1  0.62113546  0.87187020  0.87885848  1
  Fe  Fe48  1  0.12662677  0.87571769  0.13629333  1
  Fe  Fe49  1  0.62258876  0.12331752  0.87788998  1
  Fe  Fe50  1  0.37410619  0.87712913  0.39732366  1
  Fe  Fe51  1  0.62716863  0.37461264  0.38857911  1
  Fe  Fe52  1  0.87642196  0.62612508  0.63947333  1
  Fe  Fe53  1  0.87712622  0.87509405  0.39218709  1
  Fe  Fe54  1  0.87745312  0.37468894  0.64424023  1
  Fe  Fe55  1  0.38089007  0.12518126  0.13317600  1
  Fe  Fe56  1  0.87337450  0.37606545  0.87840355  1
  Fe  Fe57  1  0.62299276  0.37649929  0.63924558  1
  Fe  Fe58  1  0.62190548  0.12462556  0.63550966  1
  Fe  Fe59  1  0.87220504  0.87482943  0.13506565  1
  Fe  Fe60  1  0.12655485  0.37659100  0.64176210  1
  Fe  Fe61  1  0.87179840  0.62365172  0.13085251  1
  Fe  Fe62  1  0.37128904  0.87410159  0.62533571  1
  Fe  Fe63  1  0.12900727  0.37556640  0.88622162  1
  Pb  Pb64  1  0.00095494  -0.00476731  -0.00278261  1
  Pb  Pb65  1  -0.00539665  -0.00436573  0.24614411  1
  Pb  Pb66  1  -0.00631799  -0.00063052  0.50503758  1
  Pb  Pb67  1  0.00190669  0.00766321  0.75637878  1
  Pb  Pb68  1  0.00166938  0.25059762  -0.01394815  1
  Pb  Pb69  1  -0.00283469  0.24890841  0.24305941  1
  Pb  Pb70  1  0.00013814  0.26413004  0.51227571  1
  Pb  Pb71  1  -0.00402439  0.25183440  0.75577957  1
  Pb  Pb72  1  0.00008234  0.49646470  -0.00872549  1
  Pb  Pb73  1  -0.00280635  0.49917406  0.24344526  1
  Pb  Pb74  1  -0.00732528  0.49708563  0.51227242  1
  Pb  Pb75  1  -0.00820995  0.49381565  0.75302303  1
  Pb  Pb76  1  -0.00648700  0.75522881  0.00519629  1
  Pb  Pb77  1  -0.00968702  0.75859677  0.24852606  1
  Pb  Pb78  1  -0.01008173  0.74534883  0.50752410  1
  Pb  Pb79  1  -0.00660237  0.74609836  0.75261254  1
  Pb  Pb80  1  0.25441303  -0.00909022  0.00577282  1
  Pb  Pb81  1  0.26513454  -0.00855712  0.25408871  1
  Pb  Pb82  1  0.25709789  0.00529548  0.50404162  1
  Pb  Pb83  1  0.25135307  0.00280814  0.74680256  1
  Pb  Pb84  1  0.25161482  0.25561162  0.00175105  1
  Pb  Pb85  1  0.25649068  0.25444557  0.24708151  1
  Pb  Pb86  1  0.24784682  0.24814715  0.49995593  1
  Pb  Pb87  1  0.24100917  0.25024415  0.75476728  1
  Pb  Pb88  1  0.25331791  0.49035739  0.00732166  1
  Pb  Pb89  1  0.25541468  0.49748198  0.25182740  1
  Pb  Pb90  1  0.24668262  0.49418734  0.49641265  1
  Pb  Pb91  1  0.24744932  0.49510549  0.75296197  1
  Pb  Pb92  1  0.25092037  0.75649671  0.00742145  1
  Pb  Pb93  1  0.25811032  0.75423195  0.25502666  1
  Pb  Pb94  1  0.25161336  0.75160864  0.49585747  1
  Pb  Pb95  1  0.25121453  0.74952413  0.74632993  1
  Pb  Pb96  1  0.50195057  0.00784802  0.00045490  1
  Pb  Pb97  1  0.50272481  0.00621145  0.25048424  1
  Pb  Pb98  1  0.51304126  -0.00207295  0.50900837  1
  Pb  Pb99  1  0.49958686  -0.00111985  0.73819580  1
  Pb  Pb100  1  0.50109087  0.24227836  0.00050146  1
  Pb  Pb101  1  0.50246598  0.25178547  0.25009893  1
  Pb  Pb102  1  0.51163426  0.25659766  0.50158180  1
  Pb  Pb103  1  0.50793010  0.24223801  0.74595439  1
  Pb  Pb104  1  0.49464788  0.49522681  0.00323345  1
  Pb  Pb105  1  0.50310349  0.50553880  0.25773013  1
  Pb  Pb106  1  0.50201216  0.49722666  0.48935309  1
  Pb  Pb107  1  0.50121960  0.49813563  0.74669444  1
  Pb  Pb108  1  0.49685492  0.75390879  0.00088345  1
  Pb  Pb109  1  0.49780896  0.74594074  0.25769586  1
  Pb  Pb110  1  0.49835335  0.75169867  0.49505073  1
  Pb  Pb111  1  0.49910291  0.75603276  0.74209507  1
  Pb  Pb112  1  0.73982443  0.00726574  -0.00860280  1
  Pb  Pb113  1  0.74741728  0.00335573  0.25237899  1
  Pb  Pb114  1  0.74113324  -0.00253923  0.51090636  1
  Pb  Pb115  1  0.73952509  -0.00284446  0.74757359  1
  Pb  Pb116  1  0.74470741  0.24835398  -0.01678770  1
  Pb  Pb117  1  0.74078218  0.25049693  0.25452396  1
  Pb  Pb118  1  0.74223110  0.25530675  0.51079892  1
  Pb  Pb119  1  0.74442068  0.25281984  0.74755116  1
  Pb  Pb120  1  0.75309925  0.50203896  -0.00999752  1
  Pb  Pb121  1  0.74261530  0.49643499  0.25288802  1
  Pb  Pb122  1  0.75157081  0.49658803  0.50563110  1
  Pb  Pb123  1  0.75505502  0.49247383  0.74833354  1
  Pb  Pb124  1  0.75925746  0.75012589  0.00221316  1
  Pb  Pb125  1  0.75276908  0.74925392  0.25001569  1
  Pb  Pb126  1  0.75212152  0.75880615  0.50436515  1
  Pb  Pb127  1  0.75239433  0.75061611  0.74538680  1
  O  O128  1  0.11836131  0.01074483  0.16182442  1
  O  O129  1  0.11324829  0.00056441  0.40614302  1
  O  O130  1  0.12792399  -0.00340919  0.66338891  1
  O  O131  1  0.12947133  -0.00589062  0.91634388  1
  O  O132  1  0.11894134  0.24257143  0.16093790  1
  O  O133  1  0.11665479  0.25632173  0.41463731  1
  O  O134  1  0.12793795  0.24392852  0.66396740  1
  O  O135  1  0.13095300  0.24914979  0.91203094  1
  O  O136  1  0.12679050  0.50766390  0.16516092  1
  O  O137  1  0.12029318  0.49542803  0.41334902  1
  O  O138  1  0.13031499  0.50843508  0.66361925  1
  O  O139  1  0.13146225  0.50933803  0.91194895  1
  O  O140  1  0.12779176  0.74134977  0.16378126  1
  O  O141  1  0.12146856  0.74470074  0.40719911  1
  O  O142  1  0.12837406  0.75023792  0.66298550  1
  O  O143  1  0.13144670  0.74756409  0.91943905  1
  O  O144  1  0.37750289  0.00174681  0.16880533  1
  O  O145  1  0.36640428  0.00889890  0.41540442  1
  O  O146  1  0.36843663  -0.00159192  0.65459223  1
  O  O147  1  0.37395272  0.00109319  0.90981899  1
  O  O148  1  0.37703690  0.24741425  0.16719810  1
  O  O149  1  0.36624603  0.24347654  0.41292858  1
  O  O150  1  0.37033955  0.25692330  0.65552984  1
  O  O151  1  0.37654484  0.25332173  0.91094821  1
  O  O152  1  0.37733105  0.50570827  0.16812650  1
  O  O153  1  0.36914003  0.49709496  0.41087500  1
  O  O154  1  0.37121170  0.50159390  0.66341494  1
  O  O155  1  0.37625941  0.49931610  0.91616100  1
  O  O156  1  0.37733991  0.74622743  0.16886118  1
  O  O157  1  0.36817022  0.74842808  0.41363966  1
  O  O158  1  0.36984808  0.74470446  0.65787841  1
  O  O159  1  0.37431937  0.74858595  0.91860780  1
  O  O160  1  0.62904756  -0.00680214  0.16477603  1
  O  O161  1  0.62916516  -0.00430328  0.41828037  1
  O  O162  1  0.62448575  -0.00058013  0.66084145  1
  O  O163  1  0.62263625  -0.00373558  0.90834067  1
  O  O164  1  0.63011364  0.25624220  0.16167970  1
  O  O165  1  0.63192589  0.24955989  0.41992136  1
  O  O166  1  0.62305217  0.24980515  0.66092906  1
  O  O167  1  0.62017358  0.25034594  0.90582203  1
  O  O168  1  0.62579623  0.49747191  0.16670521  1
  O  O169  1  0.62981483  0.50023530  0.41542074  1
  O  O170  1  0.61967860  0.50832168  0.66046966  1
  O  O171  1  0.61855549  0.50950547  0.91206427  1
  O  O172  1  0.62379614  0.75302487  0.16782838  1
  O  O173  1  0.62861057  0.75524338  0.41317574  1
  O  O174  1  0.62135064  0.74068001  0.66026515  1
  O  O175  1  0.61831767  0.74470837  0.91359244  1
  O  O176  1  0.87340771  0.00647844  0.15939776  1
  O  O177  1  0.88363698  0.00666242  0.41361549  1
  O  O178  1  0.88201679  0.00287195  0.66559811  1
  O  O179  1  0.87732910  -0.01025863  0.90904618  1
  O  O180  1  0.87247043  0.24969388  0.16129989  1
  O  O181  1  0.87997637  0.25361709  0.41773938  1
  O  O182  1  0.88188771  0.24091245  0.66477497  1
  O  O183  1  0.87549847  0.25034321  0.90552216  1
  O  O184  1  0.87402100  0.49640908  0.16125139  1
  O  O185  1  0.87892207  0.49979648  0.41924467  1
  O  O186  1  0.87819961  0.50361244  0.66634605  1
  O  O187  1  0.87497072  0.50337088  0.90974967  1
  O  O188  1  0.87364411  0.74740445  0.16553966  1
  O  O189  1  0.88052156  0.74197050  0.41468857  1
  O  O190  1  0.88003024  0.75141970  0.66605158  1
  O  O191  1  0.87748392  0.75435605  0.91479388  1
  O  O192  1  -0.00893720  0.12782838  0.16114273  1
  O  O193  1  -0.00262145  0.13016680  0.42341039  1
  O  O194  1  0.00807551  0.12125094  0.66742411  1
  O  O195  1  0.00157045  0.12007435  0.91207919  1
  O  O196  1  -0.00403384  0.37549194  0.15998197  1
  O  O197  1  -0.00183961  0.37717392  0.42032223  1
  O  O198  1  0.00412379  0.37452066  0.66862570  1
  O  O199  1  0.00221529  0.37955646  0.90613532  1
  O  O200  1  0.00389411  0.62328222  0.15742292  1
  O  O201  1  0.00279478  0.62008421  0.41876046  1
  O  O202  1  0.01205808  0.62769509  0.66317551  1
  O  O203  1  0.01111240  0.62874810  0.91034103  1
  O  O204  1  0.00056450  0.87509495  0.16420017  1
  O  O205  1  0.00727242  0.87075114  0.41909333  1
  O  O206  1  0.01005585  0.87464146  0.66545443  1
  O  O207  1  0.00089768  0.87120495  0.91413480  1
  O  O208  1  0.24457923  0.12682302  0.15241610  1
  O  O209  1  0.23301014  0.12655299  0.41469724  1
  O  O210  1  0.24514334  0.12350396  0.66401084  1
  O  O211  1  0.25878413  0.12573403  0.91685051  1
  O  O212  1  0.24606568  0.37477317  0.16600830  1
  O  O213  1  0.24010369  0.37263441  0.40925096  1
  O  O214  1  0.25656076  0.37840676  0.66652761  1
  O  O215  1  0.25962389  0.37747995  0.91621395  1
  O  O216  1  0.25314217  0.62480741  0.16419679  1
  O  O217  1  0.23669651  0.61975546  0.41128791  1
  O  O218  1  0.24804338  0.62690700  0.66590190  1
  O  O219  1  0.25231579  0.62661248  0.91960308  1
  O  O220  1  0.24946098  0.87553077  0.16862375  1
  O  O221  1  0.23225344  0.87599147  0.41477859  1
  O  O222  1  0.24313371  0.87243643  0.66288991  1
  O  O223  1  0.25367049  0.87340933  0.91946670  1
  O  O224  1  0.50599272  0.12531770  0.16853398  1
  O  O225  1  0.49852175  0.12522395  0.40887018  1
  O  O226  1  0.49421636  0.12534373  0.65600690  1
  O  O227  1  0.49237877  0.12485890  0.91162451  1
  O  O228  1  0.50907027  0.37569163  0.16443572  1
  O  O229  1  0.49853667  0.37050776  0.40939352  1
  O  O230  1  0.48864557  0.37997949  0.65962216  1
  O  O231  1  0.49461189  0.37865392  0.91471286  1
  O  O232  1  0.49965212  0.62522741  0.17085411  1
  O  O233  1  0.50027818  0.62647424  0.41160749  1
  O  O234  1  0.49751278  0.62494985  0.65790084  1
  O  O235  1  0.49682160  0.62610800  0.91876598  1
  O  O236  1  0.50777886  0.87465382  0.16734100  1
  O  O237  1  0.50652587  0.87683967  0.41260478  1
  O  O238  1  0.49540378  0.87085919  0.65570053  1
  O  O239  1  0.49471849  0.87229148  0.91291487  1
  O  O240  1  0.75634906  0.12593272  0.16366489  1
  O  O241  1  0.76465545  0.12682351  0.42006780  1
  O  O242  1  0.75615661  0.12360651  0.65879859  1
  O  O243  1  0.75063254  0.12119495  0.90552066  1
  O  O244  1  0.74880995  0.37735301  0.16408982  1
  O  O245  1  0.76075952  0.37612241  0.41872546  1
  O  O246  1  0.74942312  0.37581950  0.66256274  1
  O  O247  1  0.74569364  0.38002415  0.90584242  1
  O  O248  1  0.74620817  0.62489748  0.16537445  1
  O  O249  1  0.75848677  0.62363115  0.41380774  1
  O  O250  1  0.74187663  0.62537401  0.65616508  1
  O  O251  1  0.74059956  0.62841605  0.90663323  1
  O  O252  1  0.74358070  0.87202791  0.16575164  1
  O  O253  1  0.74922954  0.87519243  0.41648773  1
  O  O254  1  0.75280946  0.87296684  0.66171230  1
  O  O255  1  0.75400163  0.86966060  0.90472751  1
  O  O256  1  0.12273617  0.12430363  0.04372355  1
  O  O257  1  0.11583756  0.13380440  0.29621552  1
  O  O258  1  0.12306256  0.12453962  0.55201543  1
  O  O259  1  0.13308283  0.11971071  0.78497576  1
  O  O260  1  0.13256523  0.37932363  0.03226214  1
  O  O261  1  0.11615952  0.37699727  0.29975791  1
  O  O262  1  0.12430506  0.37428563  0.54114019  1
  O  O263  1  0.14002136  0.37576566  0.78484731  1
  O  O264  1  0.12616636  0.62507628  0.04732137  1
  O  O265  1  0.11586129  0.62387180  0.29734773  1
  O  O266  1  0.12885615  0.62473291  0.54787738  1
  O  O267  1  0.13477501  0.63185684  0.80008307  1
  O  O268  1  0.13139177  0.87577058  0.03604876  1
  O  O269  1  0.11781058  0.87915036  0.29547561  1
  O  O270  1  0.12351917  0.87556300  0.54783152  1
  O  O271  1  0.12860579  0.87079739  0.80237908  1
  O  O272  1  0.38858488  0.12519364  0.03295762  1
  O  O273  1  0.37276967  0.12422604  0.30394806  1
  O  O274  1  0.36292784  0.12708250  0.52641247  1
  O  O275  1  0.37110792  0.12282383  0.79924523  1
  O  O276  1  0.37488124  0.38158472  0.04228619  1
  O  O277  1  0.36911562  0.37077687  0.28017892  1
  O  O278  1  0.36821077  0.37583752  0.54372173  1
  O  O279  1  0.37656548  0.37565046  0.79952105  1
  O  O280  1  0.37826888  0.62526975  0.05635431  1
  O  O281  1  0.37509182  0.62640220  0.28305325  1
  O  O282  1  0.36877703  0.62133113  0.54269585  1
  O  O283  1  0.37472928  0.62605702  0.79976702  1
  O  O284  1  0.37218200  0.87355232  0.03890213  1
  O  O285  1  0.36448722  0.87903518  0.29601211  1
  O  O286  1  0.36599813  0.87453745  0.52353148  1
  O  O287  1  0.37261386  0.86911339  0.79872792  1
  O  O288  1  0.62356626  0.11927082  0.03521175  1
  O  O289  1  0.63976720  0.12329600  0.29265829  1
  O  O290  1  0.62762487  0.11819554  0.53216297  1
  O  O291  1  0.61855220  0.12455294  0.77708232  1
  O  O292  1  0.62552568  0.37838420  0.04973089  1
  O  O293  1  0.63725577  0.37249314  0.28792186  1
  O  O294  1  0.62480680  0.37133022  0.53709483  1
  O  O295  1  0.61603528  0.38007463  0.77715837  1
  O  O296  1  0.62221662  0.62584870  0.05352041  1
  O  O297  1  0.62470390  0.62270894  0.28408026  1
  O  O298  1  0.62445612  0.62462695  0.54200576  1
  O  O299  1  0.61700687  0.62759719  0.79611262  1
  O  O300  1  0.62368461  0.87210558  0.04912170  1
  O  O301  1  0.63057011  0.87820114  0.30106030  1
  O  O302  1  0.62809605  0.87794128  0.53579438  1
  O  O303  1  0.62092376  0.86967560  0.77859611  1
  O  O304  1  0.87258450  0.12652977  0.04437686  1
  O  O305  1  0.87858516  0.12888923  0.30292802  1
  O  O306  1  0.88266898  0.12033787  0.55430902  1
  O  O307  1  0.88436288  0.12091188  0.77780443  1
  O  O308  1  0.87056174  0.37602868  0.04132225  1
  O  O309  1  0.87747217  0.37416838  0.30520344  1
  O  O310  1  0.88376758  0.37780543  0.54168639  1
  O  O311  1  0.87487876  0.37795632  0.77651756  1
  O  O312  1  0.86923893  0.63124576  0.03072638  1
  O  O313  1  0.87875999  0.61893117  0.30358421  1
  O  O314  1  0.88287055  0.62470659  0.53821702  1
  O  O315  1  0.87969123  0.63263049  0.78467543  1
  O  O316  1  0.87365271  0.86591754  0.03513825  1
  O  O317  1  0.88200821  0.87397850  0.29209309  1
  O  O318  1  0.88265035  0.87157201  0.53334094  1
  O  O319  1  0.87800573  0.86955950  0.79619517  1
