# generated using pymatgen
data_VFe(PbO3)2
_symmetry_space_group_name_H-M   'P 1'
_cell_length_a   15.37258652
_cell_length_b   15.38962622
_cell_length_c   18.51384369
_cell_angle_alpha   90.03640800
_cell_angle_beta   89.99482920
_cell_angle_gamma   89.99165143
_symmetry_Int_Tables_number   1
_chemical_formula_structural   VFe(PbO3)2
_chemical_formula_sum   'V32 Fe32 Pb64 O192'
_cell_volume   4379.97384123
_cell_formula_units_Z   32
loop_
 _symmetry_equiv_pos_site_id
 _symmetry_equiv_pos_as_xyz
  1  'x, y, z'
loop_
 _atom_site_type_symbol
 _atom_site_label
 _atom_site_symmetry_multiplicity
 _atom_site_fract_x
 _atom_site_fract_y
 _atom_site_fract_z
 _atom_site_occupancy
  V  V0  1  0.62355786  0.12647142  0.88710474  1
  V  V1  1  0.37656742  0.12925715  0.63542343  1
  V  V2  1  0.37666318  0.87772420  0.63957824  1
  V  V3  1  0.87856960  0.37399528  0.13709769  1
  V  V4  1  0.37183437  0.88187151  0.13969336  1
  V  V5  1  0.62410780  0.37305383  0.89426933  1
  V  V6  1  0.87628275  0.37499110  0.38835345  1
  V  V7  1  0.62429025  0.37875390  0.63792893  1
  V  V8  1  0.62412828  0.12592342  0.38985173  1
  V  V9  1  0.62350739  0.62471159  0.64079653  1
  V  V10  1  0.37481359  0.62539898  0.63894257  1
  V  V11  1  0.12449655  0.87488780  0.39162669  1
  V  V12  1  0.87538991  0.12395713  0.14003085  1
  V  V13  1  0.87324348  0.12464920  0.88671528  1
  V  V14  1  0.62781046  0.12329184  0.14347436  1
  V  V15  1  0.87574437  0.37781966  0.64225455  1
  V  V16  1  0.12244109  0.37526417  0.38695975  1
  V  V17  1  0.37545154  0.37517592  0.89422056  1
  V  V18  1  0.37440746  0.63340608  0.14211035  1
  V  V19  1  0.12717298  0.62439438  0.88852600  1
  V  V20  1  0.37625847  0.87615131  0.38669848  1
  V  V21  1  0.37574602  0.12768053  0.88982497  1
  V  V22  1  0.12614253  0.37426679  0.89141263  1
  V  V23  1  0.12475586  0.12301353  0.14386075  1
  V  V24  1  0.13168296  0.37882622  0.63776056  1
  V  V25  1  0.87569422  0.87188712  0.88565627  1
  V  V26  1  0.37677421  0.12555999  0.14650595  1
  V  V27  1  0.87611753  0.62801195  0.38807663  1
  V  V28  1  0.37267492  0.37742977  0.14650233  1
  V  V29  1  0.87815206  0.87580412  0.13746510  1
  V  V30  1  0.87643488  0.12245708  0.39921396  1
  V  V31  1  0.12599043  0.12701741  0.88605307  1
  Fe  Fe32  1  0.87406183  0.62137912  0.89405085  1
  Fe  Fe33  1  0.12547390  0.12754984  0.62968976  1
  Fe  Fe34  1  0.62437249  0.87941606  0.14073632  1
  Fe  Fe35  1  0.87346440  0.87239821  0.62760195  1
  Fe  Fe36  1  0.12571620  0.87213307  0.63802724  1
  Fe  Fe37  1  0.37436015  0.62216512  0.88988801  1
  Fe  Fe38  1  0.62689710  0.87514087  0.38229003  1
  Fe  Fe39  1  0.87714766  0.62611817  0.12676245  1
  Fe  Fe40  1  0.62554367  0.37064159  0.14836947  1
  Fe  Fe41  1  0.87324485  0.12632468  0.62940731  1
  Fe  Fe42  1  0.12429062  0.87610740  0.88082276  1
  Fe  Fe43  1  0.12419097  0.12582463  0.39764479  1
  Fe  Fe44  1  0.37943983  0.37890480  0.62879962  1
  Fe  Fe45  1  0.12462247  0.37163877  0.13736381  1
  Fe  Fe46  1  0.62620344  0.62561411  0.37569994  1
  Fe  Fe47  1  0.87612272  0.87546360  0.39462983  1
  Fe  Fe48  1  0.62291603  0.62505103  0.88831229  1
  Fe  Fe49  1  0.37332073  0.62837667  0.37817252  1
  Fe  Fe50  1  0.87266687  0.62236443  0.63400135  1
  Fe  Fe51  1  0.87481819  0.37117225  0.88539101  1
  Fe  Fe52  1  0.12685409  0.87811977  0.13600272  1
  Fe  Fe53  1  0.37350983  0.87528277  0.88339396  1
  Fe  Fe54  1  0.63083951  0.37584507  0.37578564  1
  Fe  Fe55  1  0.62721166  0.62547912  0.14118899  1
  Fe  Fe56  1  0.37490173  0.12150286  0.38389508  1
  Fe  Fe57  1  0.62496301  0.87706173  0.88187102  1
  Fe  Fe58  1  0.62313714  0.87428518  0.63794163  1
  Fe  Fe59  1  0.12320830  0.62464649  0.38974622  1
  Fe  Fe60  1  0.37459317  0.37490113  0.38300758  1
  Fe  Fe61  1  0.12469348  0.62171405  0.63216104  1
  Fe  Fe62  1  0.62336302  0.12684725  0.63300727  1
  Fe  Fe63  1  0.12341874  0.62539265  0.13631040  1
  Pb  Pb64  1  0.00310820  -0.00564865  -0.00313536  1
  Pb  Pb65  1  -0.00532914  -0.00671239  0.25806884  1
  Pb  Pb66  1  0.00196557  -0.01100885  0.50960901  1
  Pb  Pb67  1  0.00168151  -0.00095365  0.73524937  1
  Pb  Pb68  1  0.00180546  0.25244048  -0.00085904  1
  Pb  Pb69  1  0.00704798  0.24084313  0.25509928  1
  Pb  Pb70  1  -0.00269547  0.24599650  0.50512974  1
  Pb  Pb71  1  -0.00472706  0.25369538  0.74644183  1
  Pb  Pb72  1  -0.00168882  0.50275494  0.00077739  1
  Pb  Pb73  1  0.00841899  0.50788641  0.24764295  1
  Pb  Pb74  1  -0.00273984  0.50997661  0.50349907  1
  Pb  Pb75  1  -0.01153337  0.50562854  0.75388054  1
  Pb  Pb76  1  0.00429205  0.74021111  0.00111105  1
  Pb  Pb77  1  0.00459615  0.74654723  0.24854872  1
  Pb  Pb78  1  0.00198813  0.75390637  0.50668925  1
  Pb  Pb79  1  -0.00147252  0.74676052  0.73960313  1
  Pb  Pb80  1  0.24701548  -0.00495676  -0.00244785  1
  Pb  Pb81  1  0.24365296  0.01319350  0.26037534  1
  Pb  Pb82  1  0.24411149  0.00081737  0.50129980  1
  Pb  Pb83  1  0.24813090  -0.00793050  0.74904400  1
  Pb  Pb84  1  0.24714980  0.25334116  0.00492349  1
  Pb  Pb85  1  0.25478483  0.24823309  0.25782390  1
  Pb  Pb86  1  0.25329902  0.24880595  0.49482994  1
  Pb  Pb87  1  0.25119153  0.25079110  0.74461358  1
  Pb  Pb88  1  0.23928365  0.49892630  0.00653791  1
  Pb  Pb89  1  0.25229795  0.50353950  0.25245714  1
  Pb  Pb90  1  0.25310271  0.50407725  0.49199245  1
  Pb  Pb91  1  0.25789171  0.50698023  0.75079442  1
  Pb  Pb92  1  0.24550497  0.75427851  -0.00365220  1
  Pb  Pb93  1  0.24588614  0.74282959  0.25074475  1
  Pb  Pb94  1  0.24232630  0.74869009  0.49998436  1
  Pb  Pb95  1  0.25026556  0.75464301  0.75086656  1
  Pb  Pb96  1  0.50405767  -0.00626344  -0.00225430  1
  Pb  Pb97  1  0.50007547  0.00046938  0.25383489  1
  Pb  Pb98  1  0.51269513  -0.00097723  0.50268154  1
  Pb  Pb99  1  0.50266745  -0.00853253  0.75163556  1
  Pb  Pb100  1  0.50483802  0.25482173  0.00912608  1
  Pb  Pb101  1  0.49369263  0.25562065  0.25829100  1
  Pb  Pb102  1  0.49586481  0.25882782  0.49184407  1
  Pb  Pb103  1  0.50121727  0.25343899  0.74614074  1
  Pb  Pb104  1  0.50799565  0.50645598  0.00832512  1
  Pb  Pb105  1  0.49826931  0.50220437  0.25167417  1
  Pb  Pb106  1  0.49947232  0.49931544  0.48238898  1
  Pb  Pb107  1  0.49975264  0.51016558  0.75548283  1
  Pb  Pb108  1  0.50232084  0.75211776  -0.00536969  1
  Pb  Pb109  1  0.51046138  0.75042840  0.25015943  1
  Pb  Pb110  1  0.50726537  0.75003795  0.49122958  1
  Pb  Pb111  1  0.50066518  0.75123336  0.75579230  1
  Pb  Pb112  1  0.74575616  -0.00536019  -0.00163497  1
  Pb  Pb113  1  0.75621283  -0.01355934  0.25873198  1
  Pb  Pb114  1  0.74451718  -0.00456861  0.50467200  1
  Pb  Pb115  1  0.74804644  -0.00169136  0.73711410  1
  Pb  Pb116  1  0.74515098  0.25390602  0.00421221  1
  Pb  Pb117  1  0.74986752  0.24976756  0.25375213  1
  Pb  Pb118  1  0.74879835  0.24283311  0.50224914  1
  Pb  Pb119  1  0.75157002  0.25328684  0.74734420  1
  Pb  Pb120  1  0.74890023  0.50668523  0.00328001  1
  Pb  Pb121  1  0.74344173  0.50360835  0.24409313  1
  Pb  Pb122  1  0.75238588  0.50557244  0.49442862  1
  Pb  Pb123  1  0.74918991  0.51162542  0.76066520  1
  Pb  Pb124  1  0.73542568  0.74309504  0.00135414  1
  Pb  Pb125  1  0.74752186  0.75072900  0.24612491  1
  Pb  Pb126  1  0.74825597  0.75626202  0.49624637  1
  Pb  Pb127  1  0.75207285  0.75055750  0.74650844  1
  O  O128  1  0.12689868  0.00557525  0.16853111  1
  O  O129  1  0.12434931  -0.00612811  0.41704457  1
  O  O130  1  0.12919092  0.00265428  0.65812753  1
  O  O131  1  0.12611091  0.00980018  0.90774547  1
  O  O132  1  0.12560015  0.24205462  0.16886563  1
  O  O133  1  0.11956710  0.25984555  0.41528689  1
  O  O134  1  0.12682405  0.26019422  0.66438750  1
  O  O135  1  0.12716307  0.24579764  0.91672191  1
  O  O136  1  0.12421171  0.49698918  0.16377146  1
  O  O137  1  0.12049282  0.49179784  0.41174579  1
  O  O138  1  0.12527707  0.49201429  0.66591384  1
  O  O139  1  0.12672956  0.49899063  0.91523748  1
  O  O140  1  0.12458350  0.75314690  0.16490091  1
  O  O141  1  0.12367314  0.75563832  0.41367424  1
  O  O142  1  0.12848930  0.74498052  0.66373732  1
  O  O143  1  0.12544272  0.74441284  0.90571016  1
  O  O144  1  0.37332984  -0.00169055  0.16776936  1
  O  O145  1  0.37195699  -0.00805502  0.41447095  1
  O  O146  1  0.37582485  -0.00194050  0.65743370  1
  O  O147  1  0.37296234  0.00920564  0.91382686  1
  O  O148  1  0.37331827  0.24847186  0.16857679  1
  O  O149  1  0.37577120  0.24786292  0.41004020  1
  O  O150  1  0.37655626  0.24890208  0.65862765  1
  O  O151  1  0.37496773  0.25044250  0.92202432  1
  O  O152  1  0.37330311  0.49622810  0.16296620  1
  O  O153  1  0.37360279  0.50122162  0.40628579  1
  O  O154  1  0.37810636  0.50511219  0.66183507  1
  O  O155  1  0.37374931  0.49105253  0.92214884  1
  O  O156  1  0.37303756  0.75113316  0.15864732  1
  O  O157  1  0.37172958  0.76003597  0.41283020  1
  O  O158  1  0.37729234  0.74500558  0.66278276  1
  O  O159  1  0.37240727  0.74902532  0.91569832  1
  O  O160  1  0.62338103  0.00733598  0.16954005  1
  O  O161  1  0.62821118  0.00511392  0.41367151  1
  O  O162  1  0.61928012  0.00180490  0.66342812  1
  O  O163  1  0.62574428  0.00582158  0.91124452  1
  O  O164  1  0.62452512  0.23822419  0.17109145  1
  O  O165  1  0.62965329  0.24463523  0.40796635  1
  O  O166  1  0.62140670  0.25804792  0.66281619  1
  O  O167  1  0.62221711  0.24965156  0.92091633  1
  O  O168  1  0.62516157  0.49765116  0.16331538  1
  O  O169  1  0.62901287  0.50081935  0.40279356  1
  O  O170  1  0.62248187  0.49854819  0.66461836  1
  O  O171  1  0.62387570  0.48904095  0.91609159  1
  O  O172  1  0.62510985  0.75394554  0.16246964  1
  O  O173  1  0.62743135  0.74965600  0.41000421  1
  O  O174  1  0.62067533  0.74094344  0.66236501  1
  O  O175  1  0.62520897  0.75293592  0.91194645  1
  O  O176  1  0.87683833  0.00349443  0.17049847  1
  O  O177  1  0.87630445  0.00742801  0.41743059  1
  O  O178  1  0.87425235  0.00041387  0.65360347  1
  O  O179  1  0.87639538  0.00391600  0.91372255  1
  O  O180  1  0.87678157  0.24182745  0.16921442  1
  O  O181  1  0.87495832  0.25487327  0.41475706  1
  O  O182  1  0.87197520  0.25876199  0.66407473  1
  O  O183  1  0.87603697  0.24349420  0.91703277  1
  O  O184  1  0.87799909  0.48978591  0.14946187  1
  O  O185  1  0.87537440  0.49663074  0.41209912  1
  O  O186  1  0.86963064  0.49354329  0.66765724  1
  O  O187  1  0.87532492  0.49337849  0.91748657  1
  O  O188  1  0.87795126  0.76011833  0.15227584  1
  O  O189  1  0.87724119  0.74294882  0.40841793  1
  O  O190  1  0.87135688  0.74660182  0.66128563  1
  O  O191  1  0.87818058  0.75861319  0.90833944  1
  O  O192  1  0.00359945  0.12299322  0.16577654  1
  O  O193  1  -0.00616839  0.12986585  0.41805437  1
  O  O194  1  0.00023066  0.13214960  0.65829970  1
  O  O195  1  0.00574374  0.12755536  0.90937807  1
  O  O196  1  -0.00636522  0.36456020  0.16394600  1
  O  O197  1  -0.00432345  0.37562251  0.41673387  1
  O  O198  1  -0.00328159  0.37618756  0.66040802  1
  O  O199  1  0.00546852  0.36950234  0.91344666  1
  O  O200  1  -0.00405506  0.62603476  0.16550236  1
  O  O201  1  -0.00634317  0.62051639  0.41455687  1
  O  O202  1  -0.00090334  0.61762779  0.66283571  1
  O  O203  1  0.00827457  0.62221185  0.91149191  1
  O  O204  1  -0.00445010  0.88313666  0.16495393  1
  O  O205  1  0.00610693  0.87558467  0.41580901  1
  O  O206  1  -0.00165882  0.87300925  0.66006271  1
  O  O207  1  -0.00431940  0.88244473  0.90927896  1
  O  O208  1  0.24666946  0.12422535  0.16778365  1
  O  O209  1  0.25162665  0.12393538  0.41708168  1
  O  O210  1  0.25907727  0.12822597  0.66153085  1
  O  O211  1  0.24655455  0.12901893  0.91405219  1
  O  O212  1  0.25367529  0.37064349  0.16725521  1
  O  O213  1  0.24061195  0.37474076  0.40576430  1
  O  O214  1  0.24947716  0.37646001  0.65829713  1
  O  O215  1  0.25012486  0.37098991  0.92092473  1
  O  O216  1  0.25478323  0.62325693  0.16320237  1
  O  O217  1  0.24915228  0.62686327  0.41239216  1
  O  O218  1  0.25695333  0.62091317  0.66082675  1
  O  O219  1  0.24375463  0.62094365  0.91695950  1
  O  O220  1  0.25695982  0.87561591  0.16543809  1
  O  O221  1  0.24712058  0.87537295  0.41316240  1
  O  O222  1  0.25884330  0.87173258  0.66246238  1
  O  O223  1  0.24753945  0.87860099  0.91469119  1
  O  O224  1  0.50146874  0.12326438  0.16845907  1
  O  O225  1  0.50608087  0.12262310  0.40790517  1
  O  O226  1  0.49127458  0.12620536  0.66445490  1
  O  O227  1  0.50162675  0.12772266  0.91604663  1
  O  O228  1  0.49233192  0.37028338  0.16788959  1
  O  O229  1  0.50511635  0.37290084  0.40386358  1
  O  O230  1  0.50530878  0.37733203  0.66329669  1
  O  O231  1  0.50181684  0.37048073  0.92191450  1
  O  O232  1  0.49145938  0.62270649  0.16320514  1
  O  O233  1  0.49914282  0.62928602  0.40393184  1
  O  O234  1  0.50016846  0.62221041  0.66581963  1
  O  O235  1  0.49906090  0.62003519  0.92045036  1
  O  O236  1  0.48994626  0.87722868  0.16463939  1
  O  O237  1  0.49496516  0.87690352  0.40672207  1
  O  O238  1  0.49292694  0.87093191  0.66550287  1
  O  O239  1  0.49868326  0.87988219  0.91295410  1
  O  O240  1  0.74757980  0.12328418  0.16461959  1
  O  O241  1  0.75096715  0.12665983  0.41657858  1
  O  O242  1  0.74838844  0.13031046  0.66236958  1
  O  O243  1  0.74705107  0.12759043  0.91198550  1
  O  O244  1  0.76228799  0.36587686  0.16501098  1
  O  O245  1  0.75813802  0.37425042  0.41044198  1
  O  O246  1  0.74380498  0.37553833  0.66368697  1
  O  O247  1  0.74236040  0.36785038  0.91410336  1
  O  O248  1  0.75734774  0.62556849  0.16002997  1
  O  O249  1  0.75747981  0.62319103  0.40932696  1
  O  O250  1  0.74110499  0.61977709  0.66379365  1
  O  O251  1  0.74751580  0.62249042  0.91806129  1
  O  O252  1  0.75927653  0.88255685  0.16215440  1
  O  O253  1  0.75013762  0.87681897  0.41516188  1
  O  O254  1  0.74851503  0.87231845  0.65956463  1
  O  O255  1  0.75816142  0.88114842  0.91137810  1
  O  O256  1  0.12496948  0.12376706  0.05282932  1
  O  O257  1  0.12582562  0.12538048  0.29649009  1
  O  O258  1  0.12785396  0.13105771  0.52916463  1
  O  O259  1  0.13035100  0.13289493  0.79535295  1
  O  O260  1  0.12864083  0.36736784  0.03732349  1
  O  O261  1  0.11616752  0.37296825  0.29559678  1
  O  O262  1  0.12733831  0.37889081  0.54718332  1
  O  O263  1  0.13187357  0.37276089  0.80054738  1
  O  O264  1  0.11919936  0.62579461  0.03581585  1
  O  O265  1  0.11794844  0.62649987  0.28833615  1
  O  O266  1  0.12461698  0.62088977  0.53145569  1
  O  O267  1  0.13128263  0.61671029  0.79768353  1
  O  O268  1  0.12506483  0.88383140  0.03613063  1
  O  O269  1  0.12353971  0.87663469  0.30004137  1
  O  O270  1  0.12277288  0.87007104  0.53660922  1
  O  O271  1  0.13432092  0.87886735  0.78093924  1
  O  O272  1  0.37489417  0.12318571  0.05567019  1
  O  O273  1  0.37010502  0.12094498  0.28311850  1
  O  O274  1  0.37807309  0.12739298  0.54449119  1
  O  O275  1  0.37511923  0.13133314  0.79890947  1
  O  O276  1  0.37313840  0.37217855  0.05528827  1
  O  O277  1  0.37315469  0.37127346  0.28193362  1
  O  O278  1  0.38110129  0.37504990  0.52964223  1
  O  O279  1  0.37570640  0.37437782  0.80296675  1
  O  O280  1  0.37333304  0.62523121  0.05131516  1
  O  O281  1  0.36714336  0.62573413  0.27764802  1
  O  O282  1  0.37815756  0.62639913  0.54832409  1
  O  O283  1  0.37459571  0.61434628  0.78974218  1
  O  O284  1  0.37123883  0.88521098  0.04836371  1
  O  O285  1  0.37231711  0.87625479  0.29588241  1
  O  O286  1  0.37770177  0.87321118  0.54910532  1
  O  O287  1  0.37220960  0.87592953  0.78305239  1
  O  O288  1  0.62553653  0.12457951  0.05219262  1
  O  O289  1  0.62887570  0.12180783  0.29897414  1
  O  O290  1  0.62344608  0.12302596  0.53330934  1
  O  O291  1  0.61921617  0.13266270  0.79628899  1
  O  O292  1  0.62518711  0.36001874  0.04729953  1
  O  O293  1  0.63301541  0.36851282  0.27460658  1
  O  O294  1  0.62521752  0.37949264  0.54725115  1
  O  O295  1  0.61871198  0.36974239  0.80347630  1
  O  O296  1  0.62730210  0.62387790  0.03875016  1
  O  O297  1  0.62965123  0.62960142  0.27413077  1
  O  O298  1  0.62194053  0.62318997  0.54994145  1
  O  O299  1  0.62156884  0.61699214  0.78747207  1
  O  O300  1  0.62656684  0.88778220  0.04035447  1
  O  O301  1  0.62795216  0.87646620  0.28106451  1
  O  O302  1  0.61874302  0.87770691  0.53649369  1
  O  O303  1  0.61756026  0.87501269  0.78130258  1
  O  O304  1  0.87585231  0.12269047  0.04914633  1
  O  O305  1  0.87499655  0.12479185  0.30745183  1
  O  O306  1  0.87148721  0.13813129  0.52904319  1
  O  O307  1  0.87458814  0.12656384  0.79572698  1
  O  O308  1  0.87762560  0.36155243  0.04588557  1
  O  O309  1  0.87991222  0.37485885  0.29775260  1
  O  O310  1  0.87131030  0.37891492  0.55146776  1
  O  O311  1  0.87567572  0.36969714  0.78561379  1
  O  O312  1  0.88578300  0.62686924  0.02505508  1
  O  O313  1  0.87872032  0.62335661  0.29682769  1
  O  O314  1  0.87174560  0.61453721  0.53422424  1
  O  O315  1  0.86988765  0.61532931  0.79201683  1
  O  O316  1  0.88025379  0.88677827  0.04663240  1
  O  O317  1  0.87724769  0.88353477  0.29302449  1
  O  O318  1  0.88102940  0.87010822  0.52523722  1
  O  O319  1  0.87365642  0.87515734  0.79471873  1
