# generated using pymatgen
data_VFe(PbO3)2
_symmetry_space_group_name_H-M   'P 1'
_cell_length_a   15.37055740
_cell_length_b   15.37995395
_cell_length_c   18.53660484
_cell_angle_alpha   90.03522576
_cell_angle_beta   90.03301636
_cell_angle_gamma   89.99881226
_symmetry_Int_Tables_number   1
_chemical_formula_structural   VFe(PbO3)2
_chemical_formula_sum   'V32 Fe32 Pb64 O192'
_cell_volume   4382.02337297
_cell_formula_units_Z   32
loop_
 _symmetry_equiv_pos_site_id
 _symmetry_equiv_pos_as_xyz
  1  'x, y, z'
loop_
 _atom_site_type_symbol
 _atom_site_label
 _atom_site_symmetry_multiplicity
 _atom_site_fract_x
 _atom_site_fract_y
 _atom_site_fract_z
 _atom_site_occupancy
  V  V0  1  0.62246740  0.37673968  0.63902542  1
  V  V1  1  0.87662859  0.62537661  0.89138545  1
  V  V2  1  0.62566143  0.87531600  0.14276364  1
  V  V3  1  0.37652058  0.62429381  0.63888196  1
  V  V4  1  0.12741767  0.62737694  0.88679811  1
  V  V5  1  0.12260043  0.37476824  0.39562714  1
  V  V6  1  0.87795131  0.62495945  0.38924897  1
  V  V7  1  0.87865270  0.88468039  0.39523728  1
  V  V8  1  0.62395678  0.62863682  0.63873697  1
  V  V9  1  0.37247865  0.62248363  0.38486220  1
  V  V10  1  0.37732946  0.62524240  0.13939170  1
  V  V11  1  0.12584015  0.62483035  0.39475980  1
  V  V12  1  0.37345244  0.62429602  0.89034724  1
  V  V13  1  0.87650234  0.12498278  0.13756915  1
  V  V14  1  0.12627114  0.87261389  0.63512524  1
  V  V15  1  0.87791791  0.37620191  0.39163063  1
  V  V16  1  0.37260536  0.37327025  0.39167875  1
  V  V17  1  0.37724878  0.12450899  0.14166886  1
  V  V18  1  0.62253238  0.62620469  0.89484964  1
  V  V19  1  0.62668029  0.12401212  0.14039653  1
  V  V20  1  0.87576945  0.37407897  0.13756517  1
  V  V21  1  0.12745763  0.12358603  0.39682194  1
  V  V22  1  0.87632897  0.12420431  0.88428867  1
  V  V23  1  0.62325716  0.12342680  0.88830019  1
  V  V24  1  0.12635956  0.12541166  0.13665654  1
  V  V25  1  0.12388859  0.87338969  0.88868701  1
  V  V26  1  0.12547213  0.62499555  0.13757404  1
  V  V27  1  0.87896864  0.13205899  0.39656992  1
  V  V28  1  0.37821243  0.12577600  0.63816648  1
  V  V29  1  0.37779750  0.37595911  0.89041349  1
  V  V30  1  0.62229632  0.87829935  0.63368451  1
  V  V31  1  0.87495477  0.37753447  0.64126030  1
  Fe  Fe32  1  0.37243021  0.37417550  0.13390120  1
  Fe  Fe33  1  0.87718876  0.62744060  0.13438663  1
  Fe  Fe34  1  0.87013793  0.12516961  0.63295204  1
  Fe  Fe35  1  0.37730053  0.87178453  0.88505352  1
  Fe  Fe36  1  0.86995892  0.62430701  0.63494251  1
  Fe  Fe37  1  0.87529979  0.87872493  0.13339848  1
  Fe  Fe38  1  0.12880688  0.37738452  0.64126272  1
  Fe  Fe39  1  0.37187094  0.87491206  0.37929849  1
  Fe  Fe40  1  0.62302995  0.37168332  0.13692702  1
  Fe  Fe41  1  0.62800883  0.37721213  0.38175788  1
  Fe  Fe42  1  0.62463743  0.62310336  0.37886363  1
  Fe  Fe43  1  0.87156969  0.37566363  0.88235145  1
  Fe  Fe44  1  0.12401350  0.87765332  0.13679333  1
  Fe  Fe45  1  0.12500074  0.37242920  0.13302301  1
  Fe  Fe46  1  0.62593930  0.12642125  0.38740926  1
  Fe  Fe47  1  0.62628326  0.87402715  0.88679849  1
  Fe  Fe48  1  0.62567283  0.12610338  0.63070542  1
  Fe  Fe49  1  0.12107522  0.87384389  0.38741437  1
  Fe  Fe50  1  0.62844051  0.87273939  0.38208396  1
  Fe  Fe51  1  0.62702512  0.37589342  0.89228571  1
  Fe  Fe52  1  0.87259800  0.87158001  0.62941890  1
  Fe  Fe53  1  0.37604958  0.87334281  0.63600347  1
  Fe  Fe54  1  0.37674428  0.12392906  0.88286256  1
  Fe  Fe55  1  0.12418685  0.12322940  0.64456536  1
  Fe  Fe56  1  0.62708467  0.62471999  0.14046463  1
  Fe  Fe57  1  0.37428841  0.87514786  0.14493910  1
  Fe  Fe58  1  0.12387396  0.37741481  0.88005484  1
  Fe  Fe59  1  0.12395225  0.62762688  0.63301292  1
  Fe  Fe60  1  0.37868007  0.37702305  0.63351730  1
  Fe  Fe61  1  0.37113638  0.12766587  0.38206953  1
  Fe  Fe62  1  0.12691469  0.12266550  0.87561598  1
  Fe  Fe63  1  0.87151933  0.87377930  0.88950856  1
  Pb  Pb64  1  0.00239484  -0.01032393  0.00038993  1
  Pb  Pb65  1  0.00317885  -0.00482330  0.25094517  1
  Pb  Pb66  1  0.00226856  0.01303983  0.51232399  1
  Pb  Pb67  1  -0.00426886  -0.00036351  0.74319565  1
  Pb  Pb68  1  0.00712336  0.25360663  -0.01146384  1
  Pb  Pb69  1  -0.00072783  0.24761824  0.24881056  1
  Pb  Pb70  1  0.00801154  0.24771334  0.51328983  1
  Pb  Pb71  1  0.00447381  0.24956815  0.74703273  1
  Pb  Pb72  1  0.00184137  0.49748703  -0.00520853  1
  Pb  Pb73  1  0.00097416  0.50055984  0.24703201  1
  Pb  Pb74  1  0.00645404  0.50483775  0.50850533  1
  Pb  Pb75  1  0.00298636  0.50042272  0.74691311  1
  Pb  Pb76  1  -0.00422417  0.75407733  0.00323792  1
  Pb  Pb77  1  0.00117890  0.75741340  0.24803711  1
  Pb  Pb78  1  -0.00569311  0.74628932  0.50431226  1
  Pb  Pb79  1  -0.00947188  0.75039026  0.74385600  1
  Pb  Pb80  1  0.25253009  -0.00312160  -0.00550663  1
  Pb  Pb81  1  0.25382470  -0.00236104  0.25215428  1
  Pb  Pb82  1  0.25919637  -0.00755845  0.49862028  1
  Pb  Pb83  1  0.25352577  0.00686785  0.75009469  1
  Pb  Pb84  1  0.24694219  0.25256511  -0.00840211  1
  Pb  Pb85  1  0.25364036  0.24705436  0.24997356  1
  Pb  Pb86  1  0.24453631  0.25708097  0.50995504  1
  Pb  Pb87  1  0.24615137  0.25094974  0.74782762  1
  Pb  Pb88  1  0.25037347  0.49163334  -0.00009587  1
  Pb  Pb89  1  0.24897018  0.49715850  0.24675343  1
  Pb  Pb90  1  0.24677609  0.49564609  0.50678609  1
  Pb  Pb91  1  0.24572411  0.49617355  0.74755948  1
  Pb  Pb92  1  0.25197275  0.76010674  0.00429465  1
  Pb  Pb93  1  0.24610134  0.75965649  0.25152625  1
  Pb  Pb94  1  0.25363605  0.75451477  0.49799804  1
  Pb  Pb95  1  0.25661216  0.75623340  0.74793243  1
  Pb  Pb96  1  0.49274979  -0.00596832  -0.00179676  1
  Pb  Pb97  1  0.50519750  0.00025234  0.25738697  1
  Pb  Pb98  1  0.49900488  -0.00125456  0.48705922  1
  Pb  Pb99  1  0.49195584  -0.00072688  0.75085009  1
  Pb  Pb100  1  0.50023562  0.25873932  0.00304396  1
  Pb  Pb101  1  0.50229901  0.24880087  0.25124634  1
  Pb  Pb102  1  0.50441224  0.24489382  0.49431499  1
  Pb  Pb103  1  0.49867500  0.24476147  0.74964012  1
  Pb  Pb104  1  0.50661713  0.49691505  0.00727817  1
  Pb  Pb105  1  0.50805616  0.49451410  0.24719719  1
  Pb  Pb106  1  0.49706365  0.49692670  0.49545960  1
  Pb  Pb107  1  0.50677544  0.49670144  0.75350387  1
  Pb  Pb108  1  0.49679667  0.75447417  0.00366976  1
  Pb  Pb109  1  0.50372734  0.75724520  0.25338525  1
  Pb  Pb110  1  0.50032700  0.75672820  0.49016982  1
  Pb  Pb111  1  0.50333943  0.75868671  0.75383954  1
  Pb  Pb112  1  0.75347557  -0.00433779  -0.00258367  1
  Pb  Pb113  1  0.74388946  0.00322296  0.25390514  1
  Pb  Pb114  1  0.74679467  0.00682432  0.50011571  1
  Pb  Pb115  1  0.75358025  -0.00401961  0.74471523  1
  Pb  Pb116  1  0.74692382  0.25434399  -0.00269644  1
  Pb  Pb117  1  0.74173363  0.24813654  0.25289337  1
  Pb  Pb118  1  0.74630853  0.24510931  0.50144585  1
  Pb  Pb119  1  0.74798446  0.25678011  0.75001309  1
  Pb  Pb120  1  0.74927746  0.50804493  0.00607686  1
  Pb  Pb121  1  0.74180750  0.50236197  0.24762949  1
  Pb  Pb122  1  0.75326213  0.50397164  0.49733349  1
  Pb  Pb123  1  0.74729634  0.49201236  0.75586958  1
  Pb  Pb124  1  0.75142939  0.74252315  0.00617023  1
  Pb  Pb125  1  0.75029786  0.74867687  0.24689974  1
  Pb  Pb126  1  0.75634623  0.74840336  0.49749881  1
  Pb  Pb127  1  0.74979569  0.76060677  0.75327979  1
  O  O128  1  0.12475161  0.00986594  0.16394359  1
  O  O129  1  0.12102681  0.00659715  0.41607438  1
  O  O130  1  0.12636114  -0.01044278  0.66245754  1
  O  O131  1  0.12467847  -0.00763529  0.90757864  1
  O  O132  1  0.12479708  0.24261884  0.16392414  1
  O  O133  1  0.12321306  0.24995798  0.42260522  1
  O  O134  1  0.12583321  0.25124428  0.66515560  1
  O  O135  1  0.12580069  0.24952472  0.90463844  1
  O  O136  1  0.12371989  0.50368207  0.16267724  1
  O  O137  1  0.12417688  0.49900564  0.42036578  1
  O  O138  1  0.12619151  0.50435722  0.66553356  1
  O  O139  1  0.12448302  0.50585620  0.91188686  1
  O  O140  1  0.12309250  0.74318534  0.16126779  1
  O  O141  1  0.12187882  0.74452908  0.41493907  1
  O  O142  1  0.12721913  0.75533690  0.66259702  1
  O  O143  1  0.12400088  0.75103005  0.91724149  1
  O  O144  1  0.37316425  0.00799120  0.16533176  1
  O  O145  1  0.37019700  0.00144211  0.40831303  1
  O  O146  1  0.37964699  0.00326519  0.66077114  1
  O  O147  1  0.37639295  -0.00244787  0.91345090  1
  O  O148  1  0.37190380  0.24300213  0.16448970  1
  O  O149  1  0.36903849  0.25734146  0.41258736  1
  O  O150  1  0.37917248  0.24520075  0.66157797  1
  O  O151  1  0.37723765  0.25764333  0.90885065  1
  O  O152  1  0.36972897  0.50751225  0.16444424  1
  O  O153  1  0.37026679  0.49992294  0.41428413  1
  O  O154  1  0.38156170  0.50842526  0.66494830  1
  O  O155  1  0.37677501  0.50029841  0.91774795  1
  O  O156  1  0.37180890  0.74077503  0.16701958  1
  O  O157  1  0.37130723  0.74098270  0.40574214  1
  O  O158  1  0.38093596  0.74260587  0.66534480  1
  O  O159  1  0.37508428  0.74475004  0.91858100  1
  O  O160  1  0.62408867  0.00057780  0.16909128  1
  O  O161  1  0.62991918  -0.00157635  0.41194787  1
  O  O162  1  0.62362745  -0.00660797  0.65182993  1
  O  O163  1  0.62489796  0.00638419  0.91393666  1
  O  O164  1  0.62510291  0.24500729  0.16609648  1
  O  O165  1  0.62761992  0.25483596  0.41371464  1
  O  O166  1  0.62332203  0.25857501  0.65944378  1
  O  O167  1  0.62563549  0.24302033  0.91478685  1
  O  O168  1  0.62608167  0.49691409  0.16217536  1
  O  O169  1  0.62498641  0.50042670  0.41326673  1
  O  O170  1  0.62203859  0.49947715  0.66520146  1
  O  O171  1  0.62515387  0.50747319  0.91871013  1
  O  O172  1  0.62520742  0.75680626  0.16193343  1
  O  O173  1  0.62707871  0.74621290  0.41025103  1
  O  O174  1  0.62191127  0.74592303  0.65930603  1
  O  O175  1  0.62649032  0.74241505  0.91848192  1
  O  O176  1  0.87535323  0.00697944  0.16614828  1
  O  O177  1  0.87843871  0.00094075  0.41391347  1
  O  O178  1  0.87037091  -0.00413336  0.65917130  1
  O  O179  1  0.87281438  0.00731107  0.91263184  1
  O  O180  1  0.87738134  0.24851363  0.16827369  1
  O  O181  1  0.87950338  0.25721773  0.41840750  1
  O  O182  1  0.86911577  0.25927059  0.66172511  1
  O  O183  1  0.87173091  0.24136298  0.90971956  1
  O  O184  1  0.87912780  0.49058124  0.16017440  1
  O  O185  1  0.87950090  0.49694249  0.41598064  1
  O  O186  1  0.86884582  0.49586346  0.66585813  1
  O  O187  1  0.87419708  0.50737885  0.91283888  1
  O  O188  1  0.87609169  0.75359594  0.16374783  1
  O  O189  1  0.87848834  0.74140939  0.40810932  1
  O  O190  1  0.86950759  0.74942550  0.66500452  1
  O  O191  1  0.87436182  0.74344359  0.91566418  1
  O  O192  1  0.00345331  0.12658813  0.16403952  1
  O  O193  1  0.00325998  0.12895554  0.42339124  1
  O  O194  1  -0.00564136  0.12445165  0.66625161  1
  O  O195  1  -0.00573330  0.12421873  0.90243158  1
  O  O196  1  -0.00337647  0.36983900  0.16542630  1
  O  O197  1  -0.00121874  0.37637303  0.42099332  1
  O  O198  1  -0.00736875  0.37796598  0.65850477  1
  O  O199  1  -0.00294270  0.37606332  0.90981952  1
  O  O200  1  0.00578602  0.62268771  0.16468165  1
  O  O201  1  -0.00303287  0.61961024  0.41747882  1
  O  O202  1  -0.00266056  0.62590018  0.66314447  1
  O  O203  1  -0.00174022  0.62647223  0.91145314  1
  O  O204  1  -0.00013318  0.87926484  0.16784568  1
  O  O205  1  -0.00568863  0.87111817  0.41877645  1
  O  O206  1  0.00557566  0.87208862  0.65597293  1
  O  O207  1  0.00350093  0.87294218  0.91163716  1
  O  O208  1  0.24633369  0.12549289  0.16111181  1
  O  O209  1  0.24281985  0.12904356  0.41744209  1
  O  O210  1  0.25887794  0.12258385  0.66090031  1
  O  O211  1  0.25047808  0.12311171  0.90985907  1
  O  O212  1  0.24825572  0.37439127  0.16637576  1
  O  O213  1  0.24916784  0.37702441  0.41919738  1
  O  O214  1  0.25697754  0.37759707  0.66606954  1
  O  O215  1  0.25611706  0.37903071  0.90895003  1
  O  O216  1  0.24435337  0.62441296  0.16404506  1
  O  O217  1  0.25275970  0.62120244  0.41460634  1
  O  O218  1  0.25938709  0.62686852  0.65910600  1
  O  O219  1  0.24984785  0.62553640  0.91549115  1
  O  O220  1  0.24746365  0.87514750  0.16643055  1
  O  O221  1  0.24680387  0.87280115  0.41360940  1
  O  O222  1  0.24719057  0.87241347  0.66234670  1
  O  O223  1  0.24514574  0.87113502  0.91240136  1
  O  O224  1  0.49696282  0.12507688  0.16289940  1
  O  O225  1  0.49717738  0.12856202  0.40942912  1
  O  O226  1  0.49952158  0.12526972  0.66318558  1
  O  O227  1  0.50581239  0.12576898  0.91368755  1
  O  O228  1  0.49555228  0.37267579  0.16532147  1
  O  O229  1  0.49146497  0.37757203  0.40762154  1
  O  O230  1  0.50465647  0.37770267  0.66570592  1
  O  O231  1  0.49685423  0.37826502  0.91644460  1
  O  O232  1  0.49346694  0.62470451  0.15915528  1
  O  O233  1  0.49024364  0.62101268  0.40642052  1
  O  O234  1  0.50481050  0.62379973  0.66815022  1
  O  O235  1  0.50196273  0.62485351  0.91632779  1
  O  O236  1  0.50507621  0.87719450  0.16694749  1
  O  O237  1  0.49835110  0.87242847  0.40629383  1
  O  O238  1  0.50618563  0.87000299  0.66153245  1
  O  O239  1  0.50257391  0.87113711  0.91844926  1
  O  O240  1  0.75076590  0.12551412  0.16527062  1
  O  O241  1  0.75720517  0.12822674  0.41495877  1
  O  O242  1  0.74656610  0.12679703  0.66415934  1
  O  O243  1  0.74796075  0.12420737  0.91244449  1
  O  O244  1  0.75935982  0.36924878  0.15972981  1
  O  O245  1  0.76023531  0.37751178  0.41120558  1
  O  O246  1  0.74326112  0.37877125  0.66377643  1
  O  O247  1  0.75133039  0.37554798  0.91992476  1
  O  O248  1  0.75420864  0.62470513  0.16674753  1
  O  O249  1  0.75913240  0.61943658  0.40764603  1
  O  O250  1  0.73843286  0.62164679  0.66342497  1
  O  O251  1  0.75043884  0.62478450  0.91551158  1
  O  O252  1  0.74510835  0.88011330  0.16246411  1
  O  O253  1  0.76073449  0.87091553  0.41175152  1
  O  O254  1  0.73918349  0.86921407  0.65860468  1
  O  O255  1  0.74824259  0.87467660  0.92034165  1
  O  O256  1  0.12502540  0.12503492  0.04582013  1
  O  O257  1  0.12352973  0.12776622  0.30600782  1
  O  O258  1  0.11653107  0.12582659  0.54307064  1
  O  O259  1  0.12919389  0.11930728  0.77467641  1
  O  O260  1  0.12589863  0.37227242  0.03343584  1
  O  O261  1  0.12287443  0.37318108  0.30471434  1
  O  O262  1  0.13180584  0.37495112  0.53944035  1
  O  O263  1  0.12642496  0.38104549  0.77963617  1
  O  O264  1  0.12503730  0.62420522  0.04688290  1
  O  O265  1  0.12300427  0.62119827  0.30368495  1
  O  O266  1  0.12163117  0.62170859  0.53336049  1
  O  O267  1  0.12682990  0.63004676  0.79605522  1
  O  O268  1  0.12017646  0.87832303  0.03644029  1
  O  O269  1  0.11809440  0.87554497  0.28746400  1
  O  O270  1  0.12934416  0.87244737  0.54397102  1
  O  O271  1  0.12572550  0.86830950  0.79837767  1
  O  O272  1  0.37497692  0.12520298  0.05061803  1
  O  O273  1  0.36626356  0.13047520  0.28271831  1
  O  O274  1  0.37894393  0.12609490  0.54709919  1
  O  O275  1  0.38318028  0.12032874  0.78315257  1
  O  O276  1  0.37328134  0.37503919  0.03419238  1
  O  O277  1  0.36606388  0.37614907  0.30065187  1
  O  O278  1  0.37563071  0.38031714  0.53441017  1
  O  O279  1  0.38183097  0.38109227  0.79953847  1
  O  O280  1  0.37212397  0.62602107  0.04838913  1
  O  O281  1  0.36884859  0.61801544  0.29438867  1
  O  O282  1  0.38156530  0.62437323  0.54798055  1
  O  O283  1  0.37528777  0.62472513  0.79974360  1
  O  O284  1  0.37465452  0.87124118  0.04377770  1
  O  O285  1  0.37099800  0.87338006  0.27781357  1
  O  O286  1  0.37134224  0.86950737  0.53630401  1
  O  O287  1  0.38028303  0.86908549  0.78426730  1
  O  O288  1  0.62510866  0.12230047  0.04983449  1
  O  O289  1  0.62986482  0.12459090  0.28590678  1
  O  O290  1  0.63017100  0.12976070  0.53029505  1
  O  O291  1  0.62283457  0.12411239  0.79719675  1
  O  O292  1  0.61737835  0.36960523  0.03538828  1
  O  O293  1  0.62718447  0.37382075  0.28125318  1
  O  O294  1  0.62220183  0.38069914  0.54815576  1
  O  O295  1  0.62763438  0.38029555  0.79197273  1
  O  O296  1  0.63311739  0.62380873  0.03980975  1
  O  O297  1  0.62693330  0.62197478  0.27821723  1
  O  O298  1  0.62151201  0.62504775  0.54789006  1
  O  O299  1  0.62395373  0.62572858  0.80379340  1
  O  O300  1  0.62322972  0.87934237  0.05183926  1
  O  O301  1  0.62545053  0.87729744  0.28207545  1
  O  O302  1  0.62090506  0.87045359  0.54250150  1
  O  O303  1  0.62597268  0.86801879  0.78694676  1
  O  O304  1  0.87821955  0.12693717  0.04700176  1
  O  O305  1  0.88332679  0.13147020  0.30547210  1
  O  O306  1  0.87639528  0.12514693  0.53220658  1
  O  O307  1  0.86956744  0.12154068  0.79335548  1
  O  O308  1  0.87936814  0.37032160  0.04674371  1
  O  O309  1  0.88281924  0.37471583  0.30105073  1
  O  O310  1  0.86885937  0.38029094  0.55036514  1
  O  O311  1  0.86308941  0.37543459  0.78269506  1
  O  O312  1  0.87298365  0.62582973  0.03482708  1
  O  O313  1  0.88355811  0.61844339  0.29835356  1
  O  O314  1  0.86933982  0.62548829  0.53484701  1
  O  O315  1  0.87372058  0.62699698  0.80033949  1
  O  O316  1  0.88386165  0.88075120  0.03286967  1
  O  O317  1  0.88171716  0.88063697  0.30379423  1
  O  O318  1  0.87175027  0.86322859  0.52938335  1
  O  O319  1  0.86462568  0.87184783  0.78918699  1
