# generated using pymatgen
data_VFe(PbO3)2
_symmetry_space_group_name_H-M   'P 1'
_cell_length_a   15.40475104
_cell_length_b   15.38750905
_cell_length_c   18.48489205
_cell_angle_alpha   90.01159585
_cell_angle_beta   89.99698251
_cell_angle_gamma   89.99486398
_symmetry_Int_Tables_number   1
_chemical_formula_structural   VFe(PbO3)2
_chemical_formula_sum   'V32 Fe32 Pb64 O192'
_cell_volume   4381.67248880
_cell_formula_units_Z   32
loop_
 _symmetry_equiv_pos_site_id
 _symmetry_equiv_pos_as_xyz
  1  'x, y, z'
loop_
 _atom_site_type_symbol
 _atom_site_label
 _atom_site_symmetry_multiplicity
 _atom_site_fract_x
 _atom_site_fract_y
 _atom_site_fract_z
 _atom_site_occupancy
  V  V0  1  0.87768705  0.62479744  0.64553036  1
  V  V1  1  0.37715606  0.87779294  0.88099150  1
  V  V2  1  0.37622819  0.62522258  0.63920802  1
  V  V3  1  0.12368760  0.12486622  0.14027159  1
  V  V4  1  0.12500417  0.37576329  0.64384099  1
  V  V5  1  0.37872273  0.12573931  0.39982652  1
  V  V6  1  0.87418772  0.37521412  0.64211009  1
  V  V7  1  0.12947362  0.87485169  0.88504656  1
  V  V8  1  0.87596238  0.37256773  0.14050160  1
  V  V9  1  0.62837507  0.87435170  0.13777537  1
  V  V10  1  0.12376937  0.87473264  0.63517315  1
  V  V11  1  0.62686850  0.12741803  0.63497749  1
  V  V12  1  0.62701109  0.37166465  0.39631921  1
  V  V13  1  0.37492417  0.37718590  0.39688074  1
  V  V14  1  0.12329330  0.87692824  0.39748061  1
  V  V15  1  0.87354631  0.87463720  0.65288372  1
  V  V16  1  0.87719659  0.12237984  0.14049420  1
  V  V17  1  0.37638371  0.62468303  0.39513676  1
  V  V18  1  0.12446523  0.62457751  0.64611941  1
  V  V19  1  0.37591157  0.87681518  0.14159550  1
  V  V20  1  0.12306516  0.37427512  0.13681316  1
  V  V21  1  0.12564899  0.12454735  0.88157455  1
  V  V22  1  0.12510868  0.62697378  0.13821462  1
  V  V23  1  0.12787039  0.12618768  0.40651657  1
  V  V24  1  0.12399055  0.87520553  0.13969987  1
  V  V25  1  0.87432500  0.87346575  0.39240706  1
  V  V26  1  0.62439995  0.62445590  0.39357932  1
  V  V27  1  0.12376207  0.37469887  0.39613304  1
  V  V28  1  0.62489401  0.87673349  0.39719724  1
  V  V29  1  0.62508556  0.37468125  0.88334222  1
  V  V30  1  0.12609286  0.62447679  0.39298800  1
  V  V31  1  0.87257299  0.12538008  0.39726953  1
  Fe  Fe32  1  0.62514312  0.87373263  0.64421088  1
  Fe  Fe33  1  0.87519573  0.12556593  0.87462617  1
  Fe  Fe34  1  0.62326027  0.62510563  0.13303671  1
  Fe  Fe35  1  0.37273014  0.87229350  0.62852903  1
  Fe  Fe36  1  0.87704173  0.87673168  0.13319455  1
  Fe  Fe37  1  0.12541411  0.37436032  0.87634242  1
  Fe  Fe38  1  0.37503518  0.87252263  0.40066993  1
  Fe  Fe39  1  0.37517243  0.62707680  0.13420118  1
  Fe  Fe40  1  0.87419159  0.37341724  0.88032712  1
  Fe  Fe41  1  0.37307184  0.12344610  0.87979595  1
  Fe  Fe42  1  0.37169228  0.12399857  0.13491033  1
  Fe  Fe43  1  0.87536892  0.62377616  0.88296413  1
  Fe  Fe44  1  0.62582507  0.12417151  0.39136955  1
  Fe  Fe45  1  0.87604135  0.87667281  0.87311539  1
  Fe  Fe46  1  0.62328414  0.12413128  0.88218591  1
  Fe  Fe47  1  0.37428381  0.12419457  0.63501942  1
  Fe  Fe48  1  0.62229651  0.62652500  0.87634254  1
  Fe  Fe49  1  0.87596392  0.62669851  0.13198289  1
  Fe  Fe50  1  0.37373076  0.62625556  0.87974477  1
  Fe  Fe51  1  0.62290624  0.37374742  0.12960259  1
  Fe  Fe52  1  0.87808293  0.12498727  0.64675487  1
  Fe  Fe53  1  0.87380935  0.62486803  0.38819210  1
  Fe  Fe54  1  0.62417421  0.12347897  0.13383728  1
  Fe  Fe55  1  0.87520676  0.37637451  0.38819032  1
  Fe  Fe56  1  0.62765295  0.37589830  0.63490120  1
  Fe  Fe57  1  0.62288362  0.87654772  0.87206009  1
  Fe  Fe58  1  0.12709803  0.62662532  0.88037697  1
  Fe  Fe59  1  0.37531678  0.37691615  0.64427977  1
  Fe  Fe60  1  0.62766576  0.62350077  0.64459813  1
  Fe  Fe61  1  0.12249874  0.12646844  0.62897598  1
  Fe  Fe62  1  0.37332702  0.37337101  0.13287351  1
  Fe  Fe63  1  0.37481986  0.37314838  0.87406172  1
  Pb  Pb64  1  -0.00672823  -0.00539158  -0.00872184  1
  Pb  Pb65  1  0.00375187  -0.00118601  0.25210537  1
  Pb  Pb66  1  -0.00700984  0.00881757  0.51096297  1
  Pb  Pb67  1  -0.00022359  0.00173292  0.74899481  1
  Pb  Pb68  1  -0.00157604  0.25194114  -0.01179329  1
  Pb  Pb69  1  -0.00447764  0.25506346  0.25647339  1
  Pb  Pb70  1  -0.00423486  0.24148507  0.51047441  1
  Pb  Pb71  1  0.00052777  0.25698825  0.75082412  1
  Pb  Pb72  1  -0.00006079  0.50356723  -0.01294240  1
  Pb  Pb73  1  -0.00977041  0.50057913  0.25288823  1
  Pb  Pb74  1  -0.00452930  0.50020675  0.50199165  1
  Pb  Pb75  1  -0.00132877  0.49527982  0.75848368  1
  Pb  Pb76  1  -0.01425706  0.74952020  -0.00569232  1
  Pb  Pb77  1  -0.00509584  0.74502202  0.24960009  1
  Pb  Pb78  1  -0.00412846  0.75192589  0.50400313  1
  Pb  Pb79  1  -0.00288840  0.74593630  0.75751445  1
  Pb  Pb80  1  0.25330475  0.00595576  -0.00183681  1
  Pb  Pb81  1  0.25672131  -0.00558740  0.25731837  1
  Pb  Pb82  1  0.25809324  0.00356544  0.50979200  1
  Pb  Pb83  1  0.25856818  0.00716575  0.74140582  1
  Pb  Pb84  1  0.26334291  0.25493669  -0.00713759  1
  Pb  Pb85  1  0.24912336  0.24817138  0.24797511  1
  Pb  Pb86  1  0.25973622  0.25200356  0.51245587  1
  Pb  Pb87  1  0.25953593  0.24842402  0.74775301  1
  Pb  Pb88  1  0.25615659  0.49593686  -0.01429651  1
  Pb  Pb89  1  0.24970482  0.50074157  0.24365065  1
  Pb  Pb90  1  0.25431516  0.49459396  0.50858560  1
  Pb  Pb91  1  0.25058429  0.50742262  0.75606684  1
  Pb  Pb92  1  0.25561594  0.74472911  -0.00356746  1
  Pb  Pb93  1  0.25591373  0.75756786  0.25575077  1
  Pb  Pb94  1  0.25259506  0.74958724  0.50430180  1
  Pb  Pb95  1  0.25068143  0.74336740  0.75120275  1
  Pb  Pb96  1  0.50434975  0.01307153  -0.00618112  1
  Pb  Pb97  1  0.50228673  0.00507277  0.25071667  1
  Pb  Pb98  1  0.49478597  -0.00202246  0.50834623  1
  Pb  Pb99  1  0.50353639  -0.00089288  0.74213663  1
  Pb  Pb100  1  0.49728520  0.25479019  -0.00554605  1
  Pb  Pb101  1  0.50091093  0.24822145  0.24220527  1
  Pb  Pb102  1  0.49500626  0.25849600  0.51039013  1
  Pb  Pb103  1  0.49393294  0.24996787  0.74545700  1
  Pb  Pb104  1  0.49842340  0.49737727  -0.00901820  1
  Pb  Pb105  1  0.49983473  0.49885254  0.24086657  1
  Pb  Pb106  1  0.50751404  0.49569178  0.50930590  1
  Pb  Pb107  1  0.50224460  0.49803121  0.74648635  1
  Pb  Pb108  1  0.50540612  0.73458959  -0.00472886  1
  Pb  Pb109  1  0.49733441  0.75306071  0.24990220  1
  Pb  Pb110  1  0.51401459  0.74873709  0.51175539  1
  Pb  Pb111  1  0.50585089  0.75216863  0.74555654  1
  Pb  Pb112  1  0.74874074  -0.00134451  -0.01587060  1
  Pb  Pb113  1  0.74336377  0.00280622  0.25245724  1
  Pb  Pb114  1  0.74832280  -0.00675903  0.51001638  1
  Pb  Pb115  1  0.73953641  0.00494574  0.75499507  1
  Pb  Pb116  1  0.74192171  0.24645886  -0.00737118  1
  Pb  Pb117  1  0.74368965  0.24728791  0.24936842  1
  Pb  Pb118  1  0.75148198  0.24854372  0.50615659  1
  Pb  Pb119  1  0.74839552  0.23877057  0.75286107  1
  Pb  Pb120  1  0.74654269  0.50882203  -0.00809836  1
  Pb  Pb121  1  0.75025038  0.50246273  0.24360670  1
  Pb  Pb122  1  0.74284408  0.50236911  0.50367324  1
  Pb  Pb123  1  0.75447426  0.50199090  0.75299776  1
  Pb  Pb124  1  0.74918378  0.75108446  -0.01585844  1
  Pb  Pb125  1  0.75736329  0.74289706  0.24589176  1
  Pb  Pb126  1  0.74115864  0.74862227  0.51119634  1
  Pb  Pb127  1  0.74806401  0.74110366  0.75685712  1
  O  O128  1  0.12322772  -0.00014047  0.17080635  1
  O  O129  1  0.12108076  -0.00474131  0.42072767  1
  O  O130  1  0.12259431  -0.00863033  0.65152084  1
  O  O131  1  0.12630245  0.00046016  0.91152704  1
  O  O132  1  0.12191911  0.24954538  0.16858279  1
  O  O133  1  0.12672483  0.25690250  0.42132350  1
  O  O134  1  0.11844987  0.25833455  0.65486186  1
  O  O135  1  0.12476784  0.24053722  0.90287780  1
  O  O136  1  0.12378191  0.50280391  0.16210424  1
  O  O137  1  0.12712256  0.49636207  0.41985009  1
  O  O138  1  0.12244465  0.50440430  0.66750773  1
  O  O139  1  0.12727682  0.50029551  0.90691027  1
  O  O140  1  0.12424350  0.74792795  0.16546809  1
  O  O141  1  0.12400587  0.75179688  0.41880663  1
  O  O142  1  0.12333688  0.74487486  0.66412029  1
  O  O143  1  0.12884730  0.75933907  0.90726347  1
  O  O144  1  0.37103992  -0.00307594  0.17212139  1
  O  O145  1  0.37450373  0.00565871  0.41848141  1
  O  O146  1  0.37113776  -0.00282476  0.65546710  1
  O  O147  1  0.36715236  -0.00594263  0.91005932  1
  O  O148  1  0.36961909  0.24836941  0.16827267  1
  O  O149  1  0.37415295  0.25004852  0.42180546  1
  O  O150  1  0.37296589  0.24869943  0.66019325  1
  O  O151  1  0.37301144  0.24842389  0.90584693  1
  O  O152  1  0.37062939  0.50100348  0.16299856  1
  O  O153  1  0.37522273  0.50091105  0.42313397  1
  O  O154  1  0.37020237  0.50775523  0.66228073  1
  O  O155  1  0.37506986  0.49833787  0.90266304  1
  O  O156  1  0.37184471  0.75498314  0.17092407  1
  O  O157  1  0.37262080  0.74285124  0.42044269  1
  O  O158  1  0.36867294  0.74415740  0.65812211  1
  O  O159  1  0.36822929  0.76252277  0.90683807  1
  O  O160  1  0.62590591  -0.00636200  0.16730315  1
  O  O161  1  0.62790011  -0.00497255  0.42124856  1
  O  O162  1  0.62812522  0.00671748  0.65730753  1
  O  O163  1  0.62268023  -0.00310758  0.90997737  1
  O  O164  1  0.62942975  0.24880411  0.16493367  1
  O  O165  1  0.62515915  0.25403336  0.41668736  1
  O  O166  1  0.62953430  0.24556758  0.65864404  1
  O  O167  1  0.62509256  0.25448913  0.90684706  1
  O  O168  1  0.62713028  0.49831510  0.16356894  1
  O  O169  1  0.62287891  0.49773870  0.41837908  1
  O  O170  1  0.62780385  0.49880964  0.66490974  1
  O  O171  1  0.62196891  0.49450897  0.90478543  1
  O  O172  1  0.62384033  0.75964524  0.16575446  1
  O  O173  1  0.62660065  0.75284941  0.41980924  1
  O  O174  1  0.62697131  0.74825678  0.66648776  1
  O  O175  1  0.62234696  0.75413759  0.90153113  1
  O  O176  1  0.87888201  0.00579783  0.16500831  1
  O  O177  1  0.87420915  -0.00015080  0.42146826  1
  O  O178  1  0.88289896  -0.00803575  0.66053575  1
  O  O179  1  0.88083038  0.00090856  0.90386629  1
  O  O180  1  0.87997026  0.24730022  0.16796029  1
  O  O181  1  0.87378543  0.24595306  0.41755637  1
  O  O182  1  0.87980998  0.25953240  0.65924984  1
  O  O183  1  0.87573788  0.24795723  0.91012421  1
  O  O184  1  0.87983055  0.49312897  0.15965894  1
  O  O185  1  0.87561974  0.50030089  0.41906736  1
  O  O186  1  0.87862205  0.50292241  0.66507872  1
  O  O187  1  0.87384985  0.49735940  0.91247134  1
  O  O188  1  0.87813138  0.75233513  0.16584854  1
  O  O189  1  0.87609021  0.75328680  0.41771466  1
  O  O190  1  0.88203625  0.74466373  0.66838735  1
  O  O191  1  0.87793928  0.75333964  0.90495963  1
  O  O192  1  -0.00213702  0.12497249  0.17170478  1
  O  O193  1  -0.00788380  0.12451292  0.42064161  1
  O  O194  1  0.00465003  0.12436240  0.66659718  1
  O  O195  1  0.00761497  0.12203623  0.90470335  1
  O  O196  1  -0.00014984  0.37273161  0.16947398  1
  O  O197  1  0.00667878  0.37546379  0.41703936  1
  O  O198  1  -0.00123030  0.38269238  0.66471235  1
  O  O199  1  0.00182830  0.37247700  0.91090663  1
  O  O200  1  0.00712416  0.62545458  0.16450960  1
  O  O201  1  0.00624129  0.62393444  0.41786413  1
  O  O202  1  0.00096628  0.62357286  0.66833919  1
  O  O203  1  0.00280673  0.62668561  0.90667932  1
  O  O204  1  0.00449269  0.87685868  0.16949817  1
  O  O205  1  -0.00033720  0.87397423  0.42110767  1
  O  O206  1  0.00978633  0.86781057  0.66757799  1
  O  O207  1  0.01040374  0.87819263  0.90632497  1
  O  O208  1  0.24259991  0.12326300  0.16910577  1
  O  O209  1  0.25310020  0.12635475  0.42238146  1
  O  O210  1  0.24411145  0.12596176  0.65593278  1
  O  O211  1  0.24217156  0.12097199  0.91040731  1
  O  O212  1  0.24221960  0.37436433  0.16620394  1
  O  O213  1  0.24823602  0.37573852  0.42323782  1
  O  O214  1  0.24088127  0.38037162  0.66020367  1
  O  O215  1  0.24902692  0.37194200  0.90451870  1
  O  O216  1  0.24165185  0.62688244  0.16510790  1
  O  O217  1  0.24811420  0.62329492  0.42163256  1
  O  O218  1  0.24625689  0.62410106  0.66146214  1
  O  O219  1  0.25040260  0.62927320  0.91440234  1
  O  O220  1  0.24751717  0.87566358  0.17121455  1
  O  O221  1  0.23958458  0.87558965  0.42013161  1
  O  O222  1  0.24065693  0.86788200  0.65562222  1
  O  O223  1  0.24662345  0.87928648  0.91433094  1
  O  O224  1  0.49883550  0.12143432  0.16501369  1
  O  O225  1  0.49654299  0.12582916  0.41710862  1
  O  O226  1  0.50769760  0.12595898  0.65444742  1
  O  O227  1  0.49737761  0.12240902  0.90632125  1
  O  O228  1  0.49829221  0.37290401  0.16447879  1
  O  O229  1  0.50103185  0.37506868  0.41999254  1
  O  O230  1  0.50293571  0.37522373  0.66212171  1
  O  O231  1  0.50461753  0.37232882  0.90521458  1
  O  O232  1  0.49936554  0.62922075  0.16804693  1
  O  O233  1  0.50183886  0.62519790  0.42036310  1
  O  O234  1  0.49242096  0.62538812  0.65734140  1
  O  O235  1  0.49806878  0.62748277  0.90631349  1
  O  O236  1  0.50144179  0.87716026  0.16782456  1
  O  O237  1  0.50762816  0.87445502  0.41684283  1
  O  O238  1  0.49576080  0.87289274  0.65683348  1
  O  O239  1  0.49026675  0.88023425  0.89691006  1
  O  O240  1  0.76016409  0.12471029  0.16434035  1
  O  O241  1  0.75480176  0.12363689  0.42191822  1
  O  O242  1  0.74722842  0.12526829  0.66084229  1
  O  O243  1  0.75079759  0.12373117  0.90798719  1
  O  O244  1  0.76010156  0.37192191  0.16001568  1
  O  O245  1  0.74505743  0.37565723  0.41537598  1
  O  O246  1  0.75848845  0.37915122  0.66073663  1
  O  O247  1  0.74317593  0.37496777  0.90791929  1
  O  O248  1  0.75031028  0.62582082  0.16364215  1
  O  O249  1  0.74456326  0.62487660  0.41669449  1
  O  O250  1  0.76043269  0.62571227  0.66256062  1
  O  O251  1  0.74720473  0.62499910  0.90691478  1
  O  O252  1  0.74565173  0.87650274  0.15965361  1
  O  O253  1  0.75022499  0.87486394  0.42173503  1
  O  O254  1  0.75893607  0.87130591  0.66358845  1
  O  O255  1  0.75041575  0.87767738  0.89504541  1
  O  O256  1  0.12045188  0.12329547  0.04986390  1
  O  O257  1  0.12223196  0.12645267  0.31520420  1
  O  O258  1  0.11310510  0.12661125  0.52620160  1
  O  O259  1  0.12839230  0.11941038  0.79024284  1
  O  O260  1  0.12223160  0.37136528  0.04629980  1
  O  O261  1  0.12649165  0.37555195  0.30531081  1
  O  O262  1  0.12041009  0.38450811  0.55222958  1
  O  O263  1  0.11591665  0.37283514  0.77587026  1
  O  O264  1  0.12518413  0.62998614  0.04781722  1
  O  O265  1  0.12747644  0.62410864  0.30206457  1
  O  O266  1  0.12200660  0.62318857  0.55467633  1
  O  O267  1  0.13582631  0.62866476  0.77953921  1
  O  O268  1  0.12524055  0.87631455  0.04914904  1
  O  O269  1  0.12130210  0.87635208  0.30621394  1
  O  O270  1  0.11801547  0.86722149  0.54372080  1
  O  O271  1  0.13289174  0.87813140  0.79396301  1
  O  O272  1  0.36725311  0.12099670  0.03524323  1
  O  O273  1  0.37292330  0.12740206  0.30861371  1
  O  O274  1  0.37575869  0.12409314  0.53300735  1
  O  O275  1  0.36524240  0.12408652  0.77806997  1
  O  O276  1  0.37472246  0.36637575  0.03281891  1
  O  O277  1  0.37181818  0.37662706  0.30633344  1
  O  O278  1  0.37284186  0.37345137  0.54051649  1
  O  O279  1  0.37535791  0.36936009  0.77157369  1
  O  O280  1  0.37703505  0.63735414  0.03494016  1
  O  O281  1  0.37410990  0.62364995  0.30417307  1
  O  O282  1  0.37120599  0.62390137  0.54741123  1
  O  O283  1  0.36408737  0.62841193  0.77902536  1
  O  O284  1  0.37500639  0.87814573  0.05110924  1
  O  O285  1  0.36559469  0.87279288  0.30002204  1
  O  O286  1  0.37128178  0.87731423  0.52593715  1
  O  O287  1  0.36718624  0.87887994  0.78932438  1
  O  O288  1  0.62504782  0.11971368  0.03416669  1
  O  O289  1  0.63433418  0.11837314  0.29181191  1
  O  O290  1  0.63074564  0.12742374  0.54291098  1
  O  O291  1  0.63215386  0.12258447  0.78066868  1
  O  O292  1  0.61949653  0.37099570  0.03034934  1
  O  O293  1  0.62474976  0.37476624  0.30537404  1
  O  O294  1  0.62586007  0.37916528  0.53396129  1
  O  O295  1  0.62540520  0.37382541  0.79177685  1
  O  O296  1  0.61849825  0.63115071  0.03317989  1
  O  O297  1  0.62340681  0.62606845  0.30261143  1
  O  O298  1  0.62760814  0.62988366  0.54105504  1
  O  O299  1  0.62718563  0.62569591  0.77447628  1
  O  O300  1  0.62240299  0.87510157  0.04735176  1
  O  O301  1  0.63011781  0.87685701  0.30631929  1
  O  O302  1  0.63284199  0.86822048  0.54128443  1
  O  O303  1  0.61927888  0.88509413  0.76943419  1
  O  O304  1  0.88029538  0.12456523  0.05013915  1
  O  O305  1  0.87286431  0.12268577  0.30618812  1
  O  O306  1  0.88140873  0.12749853  0.54402042  1
  O  O307  1  0.87134830  0.12768410  0.77232210  1
  O  O308  1  0.88212496  0.36569986  0.05047313  1
  O  O309  1  0.88275475  0.37430246  0.28849549  1
  O  O310  1  0.87734352  0.37968989  0.54993908  1
  O  O311  1  0.87993954  0.37749235  0.77995528  1
  O  O312  1  0.87741793  0.63074069  0.03255403  1
  O  O313  1  0.87844730  0.62439782  0.28788816  1
  O  O314  1  0.88112857  0.62563667  0.55372737  1
  O  O315  1  0.87160365  0.62320211  0.78136085  1
  O  O316  1  0.88476319  0.87570963  0.03408121  1
  O  O317  1  0.87461491  0.87665798  0.30142574  1
  O  O318  1  0.88232491  0.86550471  0.56046744  1
  O  O319  1  0.88751628  0.87290004  0.77069506  1
