# generated using pymatgen
data_VFe(PbO3)2
_symmetry_space_group_name_H-M   'P 1'
_cell_length_a   15.37718270
_cell_length_b   15.37988584
_cell_length_c   18.48991282
_cell_angle_alpha   90.03015401
_cell_angle_beta   90.00824441
_cell_angle_gamma   89.99527118
_symmetry_Int_Tables_number   1
_chemical_formula_structural   VFe(PbO3)2
_chemical_formula_sum   'V32 Fe32 Pb64 O192'
_cell_volume   4372.85103805
_cell_formula_units_Z   32
loop_
 _symmetry_equiv_pos_site_id
 _symmetry_equiv_pos_as_xyz
  1  'x, y, z'
loop_
 _atom_site_type_symbol
 _atom_site_label
 _atom_site_symmetry_multiplicity
 _atom_site_fract_x
 _atom_site_fract_y
 _atom_site_fract_z
 _atom_site_occupancy
  V  V0  1  0.12281040  0.87752494  0.89137303  1
  V  V1  1  0.12557739  0.62731288  0.38691800  1
  V  V2  1  0.62615904  0.12145027  0.14284507  1
  V  V3  1  0.87570210  0.87561226  0.88760790  1
  V  V4  1  0.87180642  0.87464840  0.14090670  1
  V  V5  1  0.37621305  0.37490613  0.64384189  1
  V  V6  1  0.37423854  0.12478720  0.13772896  1
  V  V7  1  0.12263401  0.87279376  0.64157953  1
  V  V8  1  0.87382678  0.37352327  0.63745894  1
  V  V9  1  0.87761178  0.62528355  0.13945481  1
  V  V10  1  0.37780506  0.87371396  0.13733655  1
  V  V11  1  0.37587512  0.62533771  0.38844741  1
  V  V12  1  0.62790730  0.87481137  0.63762674  1
  V  V13  1  0.12474620  0.12006097  0.13593868  1
  V  V14  1  0.37678676  0.12203313  0.88771958  1
  V  V15  1  0.12330428  0.62358209  0.89286754  1
  V  V16  1  0.37763182  0.62349939  0.13217164  1
  V  V17  1  0.37578375  0.87487299  0.64607773  1
  V  V18  1  0.37407244  0.62250074  0.64502019  1
  V  V19  1  0.87448257  0.12786485  0.89500418  1
  V  V20  1  0.38056742  0.62848554  0.88778657  1
  V  V21  1  0.12501924  0.12664483  0.38434887  1
  V  V22  1  0.62613533  0.62775533  0.14276116  1
  V  V23  1  0.87736097  0.62257817  0.64186812  1
  V  V24  1  0.62169015  0.87385973  0.38754413  1
  V  V25  1  0.62740623  0.87758394  0.89150312  1
  V  V26  1  0.87516212  0.38005858  0.89354183  1
  V  V27  1  0.12283013  0.37659236  0.64340598  1
  V  V28  1  0.62278330  0.62377170  0.64472309  1
  V  V29  1  0.87556274  0.12792889  0.63818497  1
  V  V30  1  0.62127552  0.12725980  0.64152855  1
  V  V31  1  0.12819601  0.87729571  0.38877034  1
  Fe  Fe32  1  0.87581788  0.12276574  0.14337613  1
  Fe  Fe33  1  0.87659681  0.87389999  0.38888595  1
  Fe  Fe34  1  0.37628526  0.37410058  0.12574867  1
  Fe  Fe35  1  0.62754947  0.37281864  0.88404959  1
  Fe  Fe36  1  0.37462072  0.87451782  0.88369150  1
  Fe  Fe37  1  0.87941129  0.37573583  0.37618012  1
  Fe  Fe38  1  0.12601798  0.12679714  0.64161620  1
  Fe  Fe39  1  0.12850773  0.62397482  0.64023062  1
  Fe  Fe40  1  0.37346047  0.12723690  0.63727083  1
  Fe  Fe41  1  0.12815593  0.63021142  0.13225101  1
  Fe  Fe42  1  0.87437208  0.62592572  0.37938774  1
  Fe  Fe43  1  0.12700687  0.37681497  0.13004446  1
  Fe  Fe44  1  0.87454653  0.12346176  0.37649120  1
  Fe  Fe45  1  0.87442153  0.87681134  0.63379432  1
  Fe  Fe46  1  0.12356918  0.12331049  0.88527531  1
  Fe  Fe47  1  0.37066045  0.87292720  0.38770964  1
  Fe  Fe48  1  0.37329701  0.12192669  0.38491554  1
  Fe  Fe49  1  0.37606686  0.37432065  0.89638532  1
  Fe  Fe50  1  0.62167951  0.37590264  0.37604129  1
  Fe  Fe51  1  0.62366575  0.62766206  0.38086055  1
  Fe  Fe52  1  0.62952634  0.62481942  0.88255846  1
  Fe  Fe53  1  0.87390361  0.37512564  0.13781239  1
  Fe  Fe54  1  0.36891664  0.37457465  0.38342130  1
  Fe  Fe55  1  0.62244416  0.37532196  0.14428809  1
  Fe  Fe56  1  0.62322714  0.12309486  0.37859989  1
  Fe  Fe57  1  0.62685588  0.12481685  0.88554414  1
  Fe  Fe58  1  0.12283487  0.37202903  0.89564754  1
  Fe  Fe59  1  0.12486177  0.87520878  0.13545285  1
  Fe  Fe60  1  0.62747884  0.37606086  0.63918876  1
  Fe  Fe61  1  0.62407450  0.87512582  0.13560678  1
  Fe  Fe62  1  0.87559028  0.62898890  0.88735918  1
  Fe  Fe63  1  0.12833588  0.37617415  0.37979629  1
  Pb  Pb64  1  -0.00720008  0.00396653  0.00631580  1
  Pb  Pb65  1  -0.00925188  -0.00447015  0.25339410  1
  Pb  Pb66  1  -0.00122532  -0.00030312  0.49865498  1
  Pb  Pb67  1  0.00311622  0.00592016  0.75013114  1
  Pb  Pb68  1  -0.00194856  0.25406386  0.00741654  1
  Pb  Pb69  1  -0.00182167  0.25673665  0.24306041  1
  Pb  Pb70  1  -0.00090040  0.24997447  0.49021356  1
  Pb  Pb71  1  0.00954180  0.25079375  0.75724180  1
  Pb  Pb72  1  0.00131638  0.49335453  0.00741904  1
  Pb  Pb73  1  0.00621738  0.49208459  0.24495625  1
  Pb  Pb74  1  -0.00164309  0.50027831  0.49154653  1
  Pb  Pb75  1  0.00182818  0.49599172  0.75501092  1
  Pb  Pb76  1  0.00880429  0.75184870  0.00459278  1
  Pb  Pb77  1  -0.00750098  0.75132786  0.25089835  1
  Pb  Pb78  1  -0.00380179  0.75110135  0.50030700  1
  Pb  Pb79  1  -0.00622330  0.74463571  0.75104927  1
  Pb  Pb80  1  0.24652899  -0.00366153  -0.00100750  1
  Pb  Pb81  1  0.26074463  -0.00020831  0.25165499  1
  Pb  Pb82  1  0.24983396  0.00992768  0.50658665  1
  Pb  Pb83  1  0.25020039  0.00538001  0.75101709  1
  Pb  Pb84  1  0.24782457  0.25278392  -0.00426702  1
  Pb  Pb85  1  0.25347838  0.25807733  0.24549974  1
  Pb  Pb86  1  0.25164963  0.24371839  0.49869267  1
  Pb  Pb87  1  0.24950542  0.25526472  0.75659986  1
  Pb  Pb88  1  0.24954399  0.49639345  -0.00035484  1
  Pb  Pb89  1  0.24907670  0.49004403  0.24356908  1
  Pb  Pb90  1  0.24545324  0.50224913  0.49947012  1
  Pb  Pb91  1  0.25078820  0.48854415  0.76081175  1
  Pb  Pb92  1  0.24194576  0.75023400  0.00252535  1
  Pb  Pb93  1  0.25320635  0.75493195  0.24585185  1
  Pb  Pb94  1  0.24258858  0.74377087  0.50494950  1
  Pb  Pb95  1  0.25505444  0.75351057  0.75469738  1
  Pb  Pb96  1  0.50424732  -0.00237784  0.00046334  1
  Pb  Pb97  1  0.49570139  0.00716419  0.25406057  1
  Pb  Pb98  1  0.49183624  0.00563986  0.49696621  1
  Pb  Pb99  1  0.49884185  -0.00024148  0.75122790  1
  Pb  Pb100  1  0.50891958  0.25711281  -0.00019117  1
  Pb  Pb101  1  0.50152928  0.25066721  0.25017422  1
  Pb  Pb102  1  0.49965796  0.25089890  0.48915610  1
  Pb  Pb103  1  0.49998866  0.26066380  0.75861256  1
  Pb  Pb104  1  0.50977017  0.48811705  0.00109354  1
  Pb  Pb105  1  0.49590420  0.48890945  0.24994568  1
  Pb  Pb106  1  0.51042288  0.48798200  0.49765781  1
  Pb  Pb107  1  0.50279332  0.49202620  0.75806587  1
  Pb  Pb108  1  0.50628970  0.75462108  -0.00070077  1
  Pb  Pb109  1  0.50204331  0.74800829  0.25106090  1
  Pb  Pb110  1  0.49785431  0.75002890  0.49879769  1
  Pb  Pb111  1  0.50259755  0.75057977  0.75266891  1
  Pb  Pb112  1  0.75498581  0.00462789  0.00673294  1
  Pb  Pb113  1  0.74909973  0.00358355  0.25376829  1
  Pb  Pb114  1  0.75466888  -0.00029506  0.49251713  1
  Pb  Pb115  1  0.74647097  0.00590243  0.74959170  1
  Pb  Pb116  1  0.75194852  0.25614256  0.00759107  1
  Pb  Pb117  1  0.75244652  0.25701260  0.24774516  1
  Pb  Pb118  1  0.74548040  0.25465332  0.48360020  1
  Pb  Pb119  1  0.74394808  0.24997111  0.75226010  1
  Pb  Pb120  1  0.74626053  0.49523162  0.00099406  1
  Pb  Pb121  1  0.75195451  0.49676890  0.25065396  1
  Pb  Pb122  1  0.74710432  0.49565964  0.48685202  1
  Pb  Pb123  1  0.74924697  0.50657722  0.75324818  1
  Pb  Pb124  1  0.74819956  0.75075805  -0.00090178  1
  Pb  Pb125  1  0.75076208  0.74372566  0.25443428  1
  Pb  Pb126  1  0.75442070  0.74857932  0.49584846  1
  Pb  Pb127  1  0.75112701  0.74263550  0.75201541  1
  O  O128  1  0.13051545  0.00301309  0.16352858  1
  O  O129  1  0.12460132  -0.00389667  0.40939513  1
  O  O130  1  0.12374823  -0.00781979  0.66639915  1
  O  O131  1  0.12326023  -0.00437984  0.91421007  1
  O  O132  1  0.12914849  0.23887533  0.15656926  1
  O  O133  1  0.12701234  0.24320288  0.40582666  1
  O  O134  1  0.12468286  0.25870730  0.66792167  1
  O  O135  1  0.12166716  0.24474220  0.91694913  1
  O  O136  1  0.12735762  0.50486969  0.15501961  1
  O  O137  1  0.12787415  0.50937212  0.40944148  1
  O  O138  1  0.12532781  0.49422608  0.66983728  1
  O  O139  1  0.12151616  0.50723688  0.91326050  1
  O  O140  1  0.12600663  0.75237323  0.16736519  1
  O  O141  1  0.12710995  0.74928191  0.41435512  1
  O  O142  1  0.12532304  0.75477570  0.66798612  1
  O  O143  1  0.12308445  0.75398580  0.91362923  1
  O  O144  1  0.37401694  -0.00220883  0.16116409  1
  O  O145  1  0.37063534  -0.00391427  0.41885354  1
  O  O146  1  0.37611387  -0.00253037  0.66708754  1
  O  O147  1  0.37557058  0.00142982  0.91452965  1
  O  O148  1  0.37609213  0.24198319  0.15520655  1
  O  O149  1  0.36889092  0.24810508  0.41103902  1
  O  O150  1  0.37367612  0.25742140  0.66633372  1
  O  O151  1  0.37516455  0.23866263  0.91224989  1
  O  O152  1  0.37702131  0.50789355  0.15186038  1
  O  O153  1  0.36993092  0.51148557  0.41415315  1
  O  O154  1  0.37447048  0.49543170  0.67163153  1
  O  O155  1  0.37163871  0.51379663  0.91232787  1
  O  O156  1  0.37900743  0.75338651  0.15847110  1
  O  O157  1  0.37047902  0.74435772  0.41906189  1
  O  O158  1  0.37598238  0.74889609  0.67105192  1
  O  O159  1  0.37183390  0.74643643  0.91444841  1
  O  O160  1  0.62217088  0.00182162  0.16460445  1
  O  O161  1  0.62225043  -0.00978695  0.41156153  1
  O  O162  1  0.62772482  0.00304953  0.66550249  1
  O  O163  1  0.62633005  -0.00404496  0.91546181  1
  O  O164  1  0.61923922  0.24019463  0.16224700  1
  O  O165  1  0.62212970  0.25027840  0.40554416  1
  O  O166  1  0.62710708  0.24432659  0.66329989  1
  O  O167  1  0.62888075  0.24768119  0.91652206  1
  O  O168  1  0.62211550  0.51187435  0.16289482  1
  O  O169  1  0.62147622  0.50195466  0.40864853  1
  O  O170  1  0.62548174  0.50313656  0.66772780  1
  O  O171  1  0.62852180  0.49976610  0.91071971  1
  O  O172  1  0.62106148  0.74789907  0.16611979  1
  O  O173  1  0.62214204  0.75530907  0.41682154  1
  O  O174  1  0.62578132  0.75077590  0.66672136  1
  O  O175  1  0.62697350  0.75620907  0.91270573  1
  O  O176  1  0.87308162  -0.00842814  0.16497067  1
  O  O177  1  0.87909857  -0.00000268  0.41463304  1
  O  O178  1  0.87493807  0.00849448  0.66110387  1
  O  O179  1  0.87453466  -0.00201393  0.91840265  1
  O  O180  1  0.87529973  0.24778849  0.16099815  1
  O  O181  1  0.88007944  0.24804580  0.40606767  1
  O  O182  1  0.87556977  0.24798041  0.66611601  1
  O  O183  1  0.87481173  0.24657496  0.91621516  1
  O  O184  1  0.87036143  0.50951314  0.15900250  1
  O  O185  1  0.87975627  0.50171979  0.40984937  1
  O  O186  1  0.87663127  0.50069684  0.66566877  1
  O  O187  1  0.87615631  0.49645485  0.91250902  1
  O  O188  1  0.87263814  0.75074019  0.16317244  1
  O  O189  1  0.87807355  0.74897899  0.41704934  1
  O  O190  1  0.87628135  0.74378812  0.66167271  1
  O  O191  1  0.87542834  0.75816566  0.91476244  1
  O  O192  1  0.00905339  0.11920126  0.15789033  1
  O  O193  1  0.00810141  0.12096433  0.40926715  1
  O  O194  1  -0.00598413  0.12738307  0.66437165  1
  O  O195  1  -0.00800014  0.12043412  0.91807705  1
  O  O196  1  0.00269550  0.37623407  0.15841533  1
  O  O197  1  0.00570034  0.37588865  0.41229596  1
  O  O198  1  0.00140786  0.37615934  0.66702369  1
  O  O199  1  -0.00794945  0.37257327  0.91866420  1
  O  O200  1  -0.00673955  0.62952074  0.15678104  1
  O  O201  1  0.00839440  0.62857775  0.40808358  1
  O  O202  1  -0.00249473  0.62306475  0.66615913  1
  O  O203  1  0.00423801  0.62989328  0.91513729  1
  O  O204  1  -0.00690350  0.87351831  0.16167004  1
  O  O205  1  0.01137829  0.87230965  0.41698972  1
  O  O206  1  0.00353586  0.87377779  0.66424732  1
  O  O207  1  0.00167990  0.87653011  0.91477917  1
  O  O208  1  0.25381116  0.12101870  0.15988226  1
  O  O209  1  0.24091814  0.11904801  0.41325878  1
  O  O210  1  0.25067731  0.12642044  0.67137928  1
  O  O211  1  0.25501385  0.11995522  0.91040837  1
  O  O212  1  0.25286611  0.37351125  0.15546491  1
  O  O213  1  0.24691994  0.37856032  0.41874732  1
  O  O214  1  0.24927806  0.37629121  0.66791122  1
  O  O215  1  0.24965215  0.37662459  0.91462695  1
  O  O216  1  0.26180834  0.63305169  0.15495029  1
  O  O217  1  0.24816042  0.62907507  0.41589563  1
  O  O218  1  0.25414572  0.62332669  0.67268105  1
  O  O219  1  0.24449254  0.62954409  0.91247859  1
  O  O220  1  0.25873398  0.87396659  0.16027463  1
  O  O221  1  0.24103435  0.87195826  0.41860226  1
  O  O222  1  0.24610669  0.87398892  0.66732720  1
  O  O223  1  0.24361433  0.87499349  0.91046642  1
  O  O224  1  0.49462568  0.11901079  0.16157583  1
  O  O225  1  0.49992829  0.12096280  0.41313086  1
  O  O226  1  0.50494677  0.12374527  0.66061699  1
  O  O227  1  0.49599482  0.12041281  0.91188955  1
  O  O228  1  0.49540037  0.37555685  0.16274892  1
  O  O229  1  0.49473270  0.37774319  0.41030951  1
  O  O230  1  0.49488245  0.37546219  0.66632961  1
  O  O231  1  0.50237741  0.37494741  0.91398523  1
  O  O232  1  0.49568783  0.63023549  0.16275374  1
  O  O233  1  0.49239592  0.63002755  0.41023465  1
  O  O234  1  0.49810213  0.62446874  0.67155855  1
  O  O235  1  0.49724693  0.63120875  0.90475647  1
  O  O236  1  0.49383382  0.87686433  0.16324383  1
  O  O237  1  0.50190800  0.87142071  0.41466445  1
  O  O238  1  0.50406079  0.87545732  0.66904304  1
  O  O239  1  0.50522560  0.87472631  0.91155954  1
  O  O240  1  0.74289207  0.12082127  0.16203885  1
  O  O241  1  0.74895777  0.12113576  0.40728246  1
  O  O242  1  0.75314437  0.12657131  0.66481848  1
  O  O243  1  0.75689219  0.12120927  0.91912133  1
  O  O244  1  0.74809848  0.37625283  0.16430650  1
  O  O245  1  0.75079166  0.37619458  0.40183276  1
  O  O246  1  0.75577089  0.37464171  0.66404226  1
  O  O247  1  0.75704942  0.37181623  0.91543278  1
  O  O248  1  0.74706651  0.63107406  0.16114742  1
  O  O249  1  0.74866437  0.62772627  0.41186349  1
  O  O250  1  0.75471434  0.62380236  0.66465414  1
  O  O251  1  0.75204987  0.62802119  0.91880336  1
  O  O252  1  0.75336768  0.87274400  0.16420650  1
  O  O253  1  0.74302559  0.87298041  0.41002967  1
  O  O254  1  0.74799314  0.87638697  0.66328995  1
  O  O255  1  0.74864529  0.87679702  0.91375854  1
  O  O256  1  0.12758908  0.11625151  0.04423573  1
  O  O257  1  0.12660994  0.12414935  0.29365082  1
  O  O258  1  0.13002637  0.12431844  0.54199647  1
  O  O259  1  0.11448027  0.12337296  0.78440692  1
  O  O260  1  0.11948368  0.37691850  0.02733051  1
  O  O261  1  0.13148270  0.37972966  0.27890729  1
  O  O262  1  0.12399959  0.37672225  0.55281584  1
  O  O263  1  0.12027493  0.37467968  0.79364391  1
  O  O264  1  0.12540743  0.63857183  0.03170112  1
  O  O265  1  0.13029682  0.62857362  0.29608212  1
  O  O266  1  0.13220159  0.62507114  0.54113801  1
  O  O267  1  0.12252954  0.62595167  0.80119771  1
  O  O268  1  0.12770211  0.87066947  0.03519325  1
  O  O269  1  0.12878888  0.87361633  0.29748844  1
  O  O270  1  0.12493043  0.87239886  0.55049188  1
  O  O271  1  0.11993971  0.87633751  0.80021573  1
  O  O272  1  0.37461650  0.11964322  0.04697057  1
  O  O273  1  0.37299497  0.11433150  0.28393088  1
  O  O274  1  0.36599655  0.12234765  0.53761400  1
  O  O275  1  0.37769220  0.12032746  0.79593264  1
  O  O276  1  0.37906884  0.37733278  0.02398014  1
  O  O277  1  0.36547282  0.38073380  0.28255016  1
  O  O278  1  0.37384438  0.37800398  0.55317438  1
  O  O279  1  0.37795526  0.37423444  0.79328005  1
  O  O280  1  0.38238819  0.62747853  0.04124723  1
  O  O281  1  0.37192784  0.62625676  0.29726269  1
  O  O282  1  0.37456725  0.62246969  0.55426473  1
  O  O283  1  0.37390844  0.62940261  0.79626966  1
  O  O284  1  0.37881382  0.87581451  0.04555842  1
  O  O285  1  0.36536360  0.87454629  0.28828473  1
  O  O286  1  0.37586841  0.86969230  0.55497558  1
  O  O287  1  0.37631764  0.87257098  0.78423170  1
  O  O288  1  0.62354147  0.11940636  0.05090382  1
  O  O289  1  0.61707730  0.11862539  0.27840648  1
  O  O290  1  0.62719719  0.12473322  0.55112151  1
  O  O291  1  0.63343266  0.12409520  0.78561261  1
  O  O292  1  0.62152320  0.37759172  0.04125705  1
  O  O293  1  0.61666094  0.37600895  0.27391547  1
  O  O294  1  0.62123198  0.37908470  0.53949372  1
  O  O295  1  0.62069424  0.36866397  0.78227255  1
  O  O296  1  0.62372270  0.63100135  0.05104975  1
  O  O297  1  0.62337078  0.63560216  0.28134221  1
  O  O298  1  0.62247740  0.62647581  0.55371547  1
  O  O299  1  0.63682655  0.62867757  0.78212533  1
  O  O300  1  0.61969649  0.87141245  0.03601857  1
  O  O301  1  0.61950498  0.87078090  0.29577080  1
  O  O302  1  0.62339236  0.87526932  0.54814098  1
  O  O303  1  0.62818022  0.87872229  0.80007707  1
  O  O304  1  0.87391391  0.11252550  0.04192729  1
  O  O305  1  0.87613854  0.11305134  0.27502197  1
  O  O306  1  0.87499390  0.13017604  0.54741627  1
  O  O307  1  0.87415206  0.12615377  0.80374721  1
  O  O308  1  0.87379350  0.37551429  0.03581019  1
  O  O309  1  0.88175975  0.37865597  0.27478792  1
  O  O310  1  0.87789758  0.37331869  0.54669887  1
  O  O311  1  0.87702698  0.37510001  0.80225698  1
  O  O312  1  0.87245137  0.62835983  0.04820284  1
  O  O313  1  0.87220679  0.63265600  0.27913309  1
  O  O314  1  0.87698280  0.62020855  0.55096215  1
  O  O315  1  0.87288897  0.62877780  0.78703249  1
  O  O316  1  0.87185230  0.87577922  0.04928516  1
  O  O317  1  0.88526003  0.87413598  0.28849119  1
  O  O318  1  0.87856340  0.87575506  0.53430917  1
  O  O319  1  0.87636485  0.87723265  0.79608331  1
