# generated using pymatgen
data_VFe(PbO3)2
_symmetry_space_group_name_H-M   'P 1'
_cell_length_a   15.38757524
_cell_length_b   15.37347592
_cell_length_c   18.55123445
_cell_angle_alpha   89.98941349
_cell_angle_beta   89.99943174
_cell_angle_gamma   89.99691098
_symmetry_Int_Tables_number   1
_chemical_formula_structural   VFe(PbO3)2
_chemical_formula_sum   'V32 Fe32 Pb64 O192'
_cell_volume   4388.48953731
_cell_formula_units_Z   32
loop_
 _symmetry_equiv_pos_site_id
 _symmetry_equiv_pos_as_xyz
  1  'x, y, z'
loop_
 _atom_site_type_symbol
 _atom_site_label
 _atom_site_symmetry_multiplicity
 _atom_site_fract_x
 _atom_site_fract_y
 _atom_site_fract_z
 _atom_site_occupancy
  V  V0  1  0.62349354  0.87487442  0.38772850  1
  V  V1  1  0.12673038  0.37481523  0.39213428  1
  V  V2  1  0.37194956  0.87661673  0.39069835  1
  V  V3  1  0.62469131  0.12413660  0.64171099  1
  V  V4  1  0.37589950  0.12730355  0.88892923  1
  V  V5  1  0.37537018  0.37659162  0.13865355  1
  V  V6  1  0.37146922  0.37466120  0.39139737  1
  V  V7  1  0.12432874  0.62502784  0.88753800  1
  V  V8  1  0.87558525  0.62183143  0.89523936  1
  V  V9  1  0.62428691  0.37366528  0.14023417  1
  V  V10  1  0.87227194  0.62492168  0.64072021  1
  V  V11  1  0.62568138  0.37476957  0.64120241  1
  V  V12  1  0.37413434  0.12291247  0.39098724  1
  V  V13  1  0.87605507  0.87454634  0.89172566  1
  V  V14  1  0.62500945  0.62443793  0.64209405  1
  V  V15  1  0.12674678  0.12803246  0.13642474  1
  V  V16  1  0.12559250  0.11980207  0.88361997  1
  V  V17  1  0.37832933  0.12295671  0.64259422  1
  V  V18  1  0.12632955  0.12550398  0.39668671  1
  V  V19  1  0.37562192  0.62637207  0.13634214  1
  V  V20  1  0.12277541  0.37124362  0.88918284  1
  V  V21  1  0.87206710  0.87380083  0.63957715  1
  V  V22  1  0.87586328  0.87347414  0.38602120  1
  V  V23  1  0.62507228  0.62644829  0.89014227  1
  V  V24  1  0.87652271  0.62813137  0.38698641  1
  V  V25  1  0.37653525  0.37402967  0.64366909  1
  V  V26  1  0.12294761  0.87588452  0.39361302  1
  V  V27  1  0.63648411  0.12588075  0.88616968  1
  V  V28  1  0.37861314  0.87440103  0.64319360  1
  V  V29  1  0.12729366  0.87414427  0.13576603  1
  V  V30  1  0.62340582  0.12626204  0.13711448  1
  V  V31  1  0.12436983  0.37534265  0.63726023  1
  Fe  Fe32  1  0.62565617  0.87359283  0.63813642  1
  Fe  Fe33  1  0.37452789  0.62370046  0.87728122  1
  Fe  Fe34  1  0.87373166  0.12357580  0.64108076  1
  Fe  Fe35  1  0.37739749  0.62409022  0.64536825  1
  Fe  Fe36  1  0.37422007  0.37733095  0.88190747  1
  Fe  Fe37  1  0.88137224  0.12474543  0.87986523  1
  Fe  Fe38  1  0.37335703  0.87661546  0.13020062  1
  Fe  Fe39  1  0.62575364  0.37321421  0.88454003  1
  Fe  Fe40  1  0.37235684  0.87299010  0.88744670  1
  Fe  Fe41  1  0.37433701  0.12841168  0.13101797  1
  Fe  Fe42  1  0.12607902  0.62509884  0.39101248  1
  Fe  Fe43  1  0.87433549  0.37669358  0.63062790  1
  Fe  Fe44  1  0.37264318  0.62822621  0.38750452  1
  Fe  Fe45  1  0.12840095  0.12510215  0.63515074  1
  Fe  Fe46  1  0.62346953  0.62274012  0.13329472  1
  Fe  Fe47  1  0.87713830  0.37369104  0.13244805  1
  Fe  Fe48  1  0.87626515  0.12491370  0.14052354  1
  Fe  Fe49  1  0.12176365  0.87317753  0.87985118  1
  Fe  Fe50  1  0.87582089  0.12192105  0.38362185  1
  Fe  Fe51  1  0.62800204  0.87828219  0.89815157  1
  Fe  Fe52  1  0.87411369  0.37505409  0.89176293  1
  Fe  Fe53  1  0.87418665  0.87685414  0.13591228  1
  Fe  Fe54  1  0.12698437  0.62366829  0.13225661  1
  Fe  Fe55  1  0.12374311  0.62256217  0.63542300  1
  Fe  Fe56  1  0.12427814  0.87285811  0.64211396  1
  Fe  Fe57  1  0.62222876  0.87582035  0.12511106  1
  Fe  Fe58  1  0.12828979  0.37594812  0.13277993  1
  Fe  Fe59  1  0.62397773  0.62507974  0.38127118  1
  Fe  Fe60  1  0.87660875  0.37432768  0.38797889  1
  Fe  Fe61  1  0.62218731  0.12394458  0.38314702  1
  Fe  Fe62  1  0.87517678  0.62542546  0.13093557  1
  Fe  Fe63  1  0.62255947  0.37548490  0.38312080  1
  Pb  Pb64  1  -0.00915106  0.00049538  0.00379468  1
  Pb  Pb65  1  -0.00212398  0.00510572  0.24873631  1
  Pb  Pb66  1  -0.00197903  0.00793830  0.50705455  1
  Pb  Pb67  1  0.00219832  0.00286975  0.74529630  1
  Pb  Pb68  1  -0.00723453  0.25261935  0.00110269  1
  Pb  Pb69  1  -0.01106911  0.25719755  0.25103409  1
  Pb  Pb70  1  -0.01403338  0.24461313  0.50464064  1
  Pb  Pb71  1  -0.00859324  0.24600086  0.74618683  1
  Pb  Pb72  1  0.00895216  0.49960741  0.00714135  1
  Pb  Pb73  1  -0.00078012  0.49719938  0.24006015  1
  Pb  Pb74  1  -0.00152473  0.49849363  0.49854246  1
  Pb  Pb75  1  -0.00670107  0.49052992  0.75051413  1
  Pb  Pb76  1  -0.00446242  0.74630639  0.00227183  1
  Pb  Pb77  1  0.00239273  0.74328316  0.24352202  1
  Pb  Pb78  1  0.00909546  0.75103144  0.50524014  1
  Pb  Pb79  1  0.00518161  0.75028270  0.75044573  1
  Pb  Pb80  1  0.25528030  -0.00337964  -0.00228478  1
  Pb  Pb81  1  0.25288380  -0.00012634  0.24444344  1
  Pb  Pb82  1  0.24098605  -0.00246569  0.50865362  1
  Pb  Pb83  1  0.24841088  -0.00835974  0.75057460  1
  Pb  Pb84  1  0.24890095  0.24944220  -0.00109577  1
  Pb  Pb85  1  0.25209144  0.25276385  0.24718651  1
  Pb  Pb86  1  0.24556083  0.24594453  0.50481640  1
  Pb  Pb87  1  0.25572028  0.25349487  0.75005619  1
  Pb  Pb88  1  0.24206953  0.50056000  -0.00253589  1
  Pb  Pb89  1  0.24755208  0.50938755  0.25177504  1
  Pb  Pb90  1  0.25499299  0.51492230  0.50674688  1
  Pb  Pb91  1  0.25494418  0.50187545  0.74903576  1
  Pb  Pb92  1  0.25349064  0.75389500  -0.00689657  1
  Pb  Pb93  1  0.25028582  0.73916403  0.25382930  1
  Pb  Pb94  1  0.24455135  0.74941897  0.50802891  1
  Pb  Pb95  1  0.25032214  0.74862007  0.74824315  1
  Pb  Pb96  1  0.49801219  -0.00720008  -0.00003235  1
  Pb  Pb97  1  0.49990488  0.00113456  0.24116461  1
  Pb  Pb98  1  0.50574549  -0.00867562  0.50168961  1
  Pb  Pb99  1  0.50260212  -0.01165822  0.75925537  1
  Pb  Pb100  1  0.49532501  0.24828248  -0.00341463  1
  Pb  Pb101  1  0.50856837  0.24938419  0.25378009  1
  Pb  Pb102  1  0.50222143  0.24857802  0.49699521  1
  Pb  Pb103  1  0.50568986  0.25517203  0.75397454  1
  Pb  Pb104  1  0.50022387  0.50115537  -0.00765432  1
  Pb  Pb105  1  0.50482891  0.50131417  0.25390477  1
  Pb  Pb106  1  0.49654523  0.50821933  0.49890257  1
  Pb  Pb107  1  0.49950030  0.49554329  0.75422559  1
  Pb  Pb108  1  0.50046172  0.75609414  -0.00343538  1
  Pb  Pb109  1  0.50298011  0.74686035  0.24234134  1
  Pb  Pb110  1  0.49663655  0.74494067  0.49996446  1
  Pb  Pb111  1  0.49266421  0.75464227  0.75953386  1
  Pb  Pb112  1  0.76519360  0.00031827  0.00661729  1
  Pb  Pb113  1  0.74885710  0.00524861  0.24511301  1
  Pb  Pb114  1  0.75410831  0.00638231  0.49642849  1
  Pb  Pb115  1  0.74417735  -0.00516169  0.75424912  1
  Pb  Pb116  1  0.76184545  0.25511446  -0.00017132  1
  Pb  Pb117  1  0.75852610  0.25244947  0.25400971  1
  Pb  Pb118  1  0.75309786  0.24938822  0.49214591  1
  Pb  Pb119  1  0.75999011  0.25532227  0.75042890  1
  Pb  Pb120  1  0.74844528  0.50460522  0.00315064  1
  Pb  Pb121  1  0.74996669  0.50146658  0.24422924  1
  Pb  Pb122  1  0.74919912  0.49513844  0.49174448  1
  Pb  Pb123  1  0.75089623  0.48963496  0.75443166  1
  Pb  Pb124  1  0.75028719  0.74265762  0.00727649  1
  Pb  Pb125  1  0.74438818  0.74975850  0.23690805  1
  Pb  Pb126  1  0.74451988  0.75746322  0.49678204  1
  Pb  Pb127  1  0.74335826  0.75188566  0.75534437  1
  O  O128  1  0.12881801  0.00220824  0.16222688  1
  O  O129  1  0.12821088  -0.00461904  0.41917402  1
  O  O130  1  0.12728998  -0.00094515  0.66473078  1
  O  O131  1  0.12806408  0.00525287  0.90172598  1
  O  O132  1  0.13019234  0.24460448  0.15907216  1
  O  O133  1  0.12994490  0.25231450  0.41966339  1
  O  O134  1  0.12854978  0.25797069  0.66114963  1
  O  O135  1  0.12558545  0.25427600  0.90838584  1
  O  O136  1  0.12957104  0.49976597  0.16578672  1
  O  O137  1  0.12904004  0.49215828  0.41343923  1
  O  O138  1  0.12389940  0.49323764  0.66541526  1
  O  O139  1  0.11959741  0.50359887  0.91280545  1
  O  O140  1  0.12849900  0.75645750  0.15712137  1
  O  O141  1  0.12755676  0.75784106  0.41782241  1
  O  O142  1  0.12194916  0.74616108  0.66703682  1
  O  O143  1  0.11887208  0.74237278  0.90881301  1
  O  O144  1  0.37236470  0.00312321  0.16189184  1
  O  O145  1  0.37320236  -0.00477945  0.41817712  1
  O  O146  1  0.37838875  -0.00313350  0.66836001  1
  O  O147  1  0.36619796  0.00910400  0.90894838  1
  O  O148  1  0.37445519  0.25615744  0.16386686  1
  O  O149  1  0.37155218  0.24913494  0.41741142  1
  O  O150  1  0.37779304  0.24921379  0.66794901  1
  O  O151  1  0.36729956  0.24834421  0.91296931  1
  O  O152  1  0.37390735  0.49713499  0.16260656  1
  O  O153  1  0.37070343  0.49255900  0.41315955  1
  O  O154  1  0.37913221  0.49458593  0.66756167  1
  O  O155  1  0.37580124  0.50206287  0.91045280  1
  O  O156  1  0.37496265  0.74371083  0.15610388  1
  O  O157  1  0.37301519  0.76032528  0.41691172  1
  O  O158  1  0.38081999  0.75615637  0.66395854  1
  O  O159  1  0.37424383  0.74480225  0.91221661  1
  O  O160  1  0.62176897  0.00803299  0.15623709  1
  O  O161  1  0.62217999  -0.00513029  0.41452642  1
  O  O162  1  0.62389171  0.00465893  0.66686344  1
  O  O163  1  0.62053124  0.01473199  0.91606499  1
  O  O164  1  0.61911055  0.25260270  0.16367094  1
  O  O165  1  0.62012468  0.24969931  0.41522134  1
  O  O166  1  0.62194488  0.24609007  0.66396153  1
  O  O167  1  0.62143112  0.23860780  0.91506218  1
  O  O168  1  0.61903439  0.49215116  0.16232406  1
  O  O169  1  0.62327863  0.50123485  0.41377451  1
  O  O170  1  0.62802050  0.50250826  0.66623201  1
  O  O171  1  0.62912558  0.50589838  0.91129322  1
  O  O172  1  0.62012462  0.74967841  0.15577598  1
  O  O173  1  0.62344034  0.75344803  0.41328251  1
  O  O174  1  0.62971229  0.74305416  0.66636395  1
  O  O175  1  0.62923420  0.74479169  0.91326347  1
  O  O176  1  0.87718197  0.00071503  0.16976499  1
  O  O177  1  0.87760112  -0.00713299  0.41503555  1
  O  O178  1  0.87203571  -0.00948318  0.66221986  1
  O  O179  1  0.88005909  -0.00188934  0.91231291  1
  O  O180  1  0.87372476  0.24946554  0.16564186  1
  O  O181  1  0.87903116  0.24718983  0.41423498  1
  O  O182  1  0.87395575  0.25224195  0.66084638  1
  O  O183  1  0.87970050  0.24691564  0.91373301  1
  O  O184  1  0.87390709  0.49852491  0.15956243  1
  O  O185  1  0.87844530  0.50875207  0.40931988  1
  O  O186  1  0.87163562  0.50455436  0.66312382  1
  O  O187  1  0.87313528  0.50625149  0.91328508  1
  O  O188  1  0.87704445  0.75231626  0.16267730  1
  O  O189  1  0.87772388  0.75052876  0.41642204  1
  O  O190  1  0.86977071  0.74793475  0.66661396  1
  O  O191  1  0.87522801  0.75219280  0.91546812  1
  O  O192  1  0.01098047  0.12379151  0.16258785  1
  O  O193  1  0.00523383  0.12042705  0.41687678  1
  O  O194  1  0.00264805  0.12467750  0.66280180  1
  O  O195  1  0.01102948  0.12817354  0.90893311  1
  O  O196  1  0.00336549  0.37273115  0.16149805  1
  O  O197  1  0.01000776  0.37416588  0.41341678  1
  O  O198  1  0.00480666  0.37634188  0.65938812  1
  O  O199  1  0.00621393  0.37816230  0.91438400  1
  O  O200  1  0.00196034  0.62630437  0.16093843  1
  O  O201  1  -0.00399055  0.62864695  0.41461718  1
  O  O202  1  -0.01074116  0.62393154  0.66390268  1
  O  O203  1  -0.00380195  0.62561701  0.91533079  1
  O  O204  1  0.01196142  0.87868580  0.16376439  1
  O  O205  1  0.00452049  0.87470405  0.41385049  1
  O  O206  1  -0.01100185  0.87037346  0.66252810  1
  O  O207  1  -0.00390954  0.87403308  0.91371003  1
  O  O208  1  0.24530398  0.12562255  0.16463480  1
  O  O209  1  0.25239610  0.12197253  0.42346503  1
  O  O210  1  0.25794761  0.12498669  0.66613078  1
  O  O211  1  0.24256911  0.13080305  0.91330895  1
  O  O212  1  0.25742357  0.37418070  0.16496913  1
  O  O213  1  0.25171400  0.37128791  0.42046432  1
  O  O214  1  0.24806331  0.37647886  0.66442934  1
  O  O215  1  0.24187746  0.38021318  0.90971635  1
  O  O216  1  0.25677497  0.62386114  0.16258710  1
  O  O217  1  0.25041107  0.62728200  0.42190622  1
  O  O218  1  0.24955728  0.62291667  0.66386334  1
  O  O219  1  0.24127731  0.62259172  0.90173649  1
  O  O220  1  0.24476165  0.87754208  0.16266797  1
  O  O221  1  0.25116991  0.87691751  0.41654982  1
  O  O222  1  0.25873305  0.87357103  0.66293814  1
  O  O223  1  0.24462489  0.87282354  0.91201171  1
  O  O224  1  0.50327090  0.12886823  0.15982283  1
  O  O225  1  0.49317760  0.12211938  0.41756833  1
  O  O226  1  0.50192416  0.12408409  0.67152249  1
  O  O227  1  0.49059435  0.12846966  0.90590706  1
  O  O228  1  0.49451872  0.37491574  0.16455809  1
  O  O229  1  0.48824774  0.37290890  0.41487344  1
  O  O230  1  0.50318301  0.37452001  0.66808925  1
  O  O231  1  0.50063795  0.37223783  0.91333718  1
  O  O232  1  0.49204738  0.62010453  0.16056817  1
  O  O233  1  0.49765485  0.62663070  0.41607824  1
  O  O234  1  0.51109097  0.62340955  0.66537612  1
  O  O235  1  0.50732722  0.62530053  0.90670316  1
  O  O236  1  0.49788039  0.87762269  0.15957278  1
  O  O237  1  0.49476401  0.87585911  0.41359307  1
  O  O238  1  0.49918959  0.87602838  0.66856356  1
  O  O239  1  0.49853135  0.87861363  0.91306194  1
  O  O240  1  0.74119326  0.12801948  0.16159491  1
  O  O241  1  0.74904012  0.12168001  0.41211573  1
  O  O242  1  0.74096420  0.12470602  0.66249997  1
  O  O243  1  0.75066344  0.12413770  0.90201454  1
  O  O244  1  0.74068170  0.37285282  0.15834186  1
  O  O245  1  0.74989825  0.37518185  0.41150795  1
  O  O246  1  0.74680040  0.37497098  0.66253082  1
  O  O247  1  0.74745746  0.37182661  0.91715359  1
  O  O248  1  0.74891541  0.62250397  0.16226066  1
  O  O249  1  0.75800665  0.62887732  0.41005478  1
  O  O250  1  0.75111161  0.62369254  0.66999084  1
  O  O251  1  0.75228682  0.62749054  0.91614743  1
  O  O252  1  0.74606573  0.87912177  0.15757336  1
  O  O253  1  0.75078844  0.87365838  0.41122865  1
  O  O254  1  0.75339325  0.87273306  0.66878394  1
  O  O255  1  0.75943982  0.87923260  0.91623511  1
  O  O256  1  0.12775935  0.12589522  0.04540380  1
  O  O257  1  0.13060031  0.12506740  0.30619306  1
  O  O258  1  0.13019240  0.12109838  0.53486139  1
  O  O259  1  0.12759358  0.12666723  0.79257199  1
  O  O260  1  0.12868385  0.38421893  0.03295752  1
  O  O261  1  0.13215729  0.36972360  0.30169139  1
  O  O262  1  0.12708715  0.37791959  0.54664691  1
  O  O263  1  0.12005045  0.37626458  0.79811585  1
  O  O264  1  0.12523571  0.61735441  0.03232731  1
  O  O265  1  0.13638791  0.63150768  0.29107987  1
  O  O266  1  0.12278015  0.62787164  0.53487898  1
  O  O267  1  0.11469303  0.62164242  0.79675747  1
  O  O268  1  0.12684174  0.87717732  0.04477232  1
  O  O269  1  0.12581743  0.87612898  0.30338505  1
  O  O270  1  0.12679348  0.86943770  0.54115392  1
  O  O271  1  0.12275549  0.87102646  0.77965682  1
  O  O272  1  0.36814166  0.13066413  0.03184098  1
  O  O273  1  0.37168395  0.12346386  0.30014335  1
  O  O274  1  0.38033698  0.12197973  0.55203215  1
  O  O275  1  0.36923728  0.12977694  0.79800231  1
  O  O276  1  0.37548855  0.37627685  0.04766892  1
  O  O277  1  0.36857108  0.37128183  0.30080090  1
  O  O278  1  0.37676349  0.37329956  0.55281381  1
  O  O279  1  0.37451507  0.37330104  0.78197500  1
  O  O280  1  0.37506223  0.62212278  0.04566851  1
  O  O281  1  0.36702334  0.63045362  0.28788473  1
  O  O282  1  0.38049113  0.62021957  0.54390297  1
  O  O283  1  0.38007480  0.62701493  0.77616965  1
  O  O284  1  0.36835022  0.87785661  0.02969848  1
  O  O285  1  0.37135421  0.87713783  0.30014841  1
  O  O286  1  0.38120783  0.87760364  0.55215553  1
  O  O287  1  0.37930085  0.87248586  0.78644617  1
  O  O288  1  0.62446387  0.13138699  0.04665393  1
  O  O289  1  0.61745885  0.12598582  0.28416535  1
  O  O290  1  0.61906959  0.12304827  0.55098507  1
  O  O291  1  0.62706214  0.12568496  0.79500030  1
  O  O292  1  0.61897671  0.37197699  0.04955193  1
  O  O293  1  0.61394782  0.37424429  0.28351388  1
  O  O294  1  0.62221198  0.37604082  0.55040865  1
  O  O295  1  0.62749178  0.37275288  0.78419115  1
  O  O296  1  0.63018128  0.61930104  0.03319331  1
  O  O297  1  0.61831238  0.62203537  0.28151678  1
  O  O298  1  0.62729794  0.62432419  0.55110500  1
  O  O299  1  0.63117838  0.62711552  0.79907548  1
  O  O300  1  0.61764526  0.87986887  0.02349019  1
  O  O301  1  0.62118565  0.87604674  0.29691428  1
  O  O302  1  0.62421435  0.87381117  0.53920543  1
  O  O303  1  0.63112671  0.88281946  0.79575918  1
  O  O304  1  0.87907376  0.11653362  0.03897720  1
  O  O305  1  0.87634826  0.12521867  0.28329775  1
  O  O306  1  0.87815474  0.11812076  0.53982336  1
  O  O307  1  0.88059164  0.12751388  0.77938382  1
  O  O308  1  0.87610287  0.36413577  0.03124412  1
  O  O309  1  0.87752154  0.36724204  0.28754646  1
  O  O310  1  0.87995632  0.37888386  0.53063168  1
  O  O311  1  0.87333883  0.37763137  0.78981508  1
  O  O312  1  0.87094928  0.63173434  0.03011474  1
  O  O313  1  0.87895665  0.63203374  0.29651861  1
  O  O314  1  0.87013024  0.62723976  0.55047956  1
  O  O315  1  0.87436829  0.62576142  0.80439181  1
  O  O316  1  0.88103492  0.88885595  0.03583907  1
  O  O317  1  0.87791968  0.87372955  0.29539618  1
  O  O318  1  0.86929097  0.87059300  0.54882454  1
  O  O319  1  0.87468908  0.87374317  0.80070262  1
