# generated using pymatgen
data_VFe(PbO3)2
_symmetry_space_group_name_H-M   'P 1'
_cell_length_a   15.39211534
_cell_length_b   15.38872685
_cell_length_c   18.46469792
_cell_angle_alpha   89.98062827
_cell_angle_beta   90.01238770
_cell_angle_gamma   90.00210137
_symmetry_Int_Tables_number   1
_chemical_formula_structural   VFe(PbO3)2
_chemical_formula_sum   'V32 Fe32 Pb64 O192'
_cell_volume   4373.64140106
_cell_formula_units_Z   32
loop_
 _symmetry_equiv_pos_site_id
 _symmetry_equiv_pos_as_xyz
  1  'x, y, z'
loop_
 _atom_site_type_symbol
 _atom_site_label
 _atom_site_symmetry_multiplicity
 _atom_site_fract_x
 _atom_site_fract_y
 _atom_site_fract_z
 _atom_site_occupancy
  V  V0  1  0.62688187  0.87537065  0.14320685  1
  V  V1  1  0.38078839  0.12988885  0.39132610  1
  V  V2  1  0.87546513  0.36658622  0.64096887  1
  V  V3  1  0.62602870  0.62540287  0.39500488  1
  V  V4  1  0.12473899  0.12659315  0.64295484  1
  V  V5  1  0.37634504  0.12541142  0.64008001  1
  V  V6  1  0.87278300  0.62311972  0.39429355  1
  V  V7  1  0.87299970  0.37878257  0.39419877  1
  V  V8  1  0.37406051  0.37650145  0.64190589  1
  V  V9  1  0.87647777  0.87008129  0.39166337  1
  V  V10  1  0.63122574  0.12416072  0.63538680  1
  V  V11  1  0.12707885  0.12283870  0.39090883  1
  V  V12  1  0.87826988  0.61640094  0.64675325  1
  V  V13  1  0.37220944  0.62746971  0.63846771  1
  V  V14  1  0.12394208  0.62742379  0.88238316  1
  V  V15  1  0.62413375  0.12365785  0.14725194  1
  V  V16  1  0.12955585  0.12488578  0.14082141  1
  V  V17  1  0.62486364  0.87520759  0.88251606  1
  V  V18  1  0.12248667  0.87663813  0.14516057  1
  V  V19  1  0.87556129  0.87691133  0.63714137  1
  V  V20  1  0.12669076  0.87265457  0.63982429  1
  V  V21  1  0.37712931  0.12419321  0.13892439  1
  V  V22  1  0.87588402  0.12591375  0.14067713  1
  V  V23  1  0.87314063  0.62592086  0.13890007  1
  V  V24  1  0.12378854  0.37522920  0.39121106  1
  V  V25  1  0.87558760  0.12386186  0.88573937  1
  V  V26  1  0.37580238  0.87535936  0.14398777  1
  V  V27  1  0.12724944  0.62396136  0.14098703  1
  V  V28  1  0.87637646  0.37571737  0.13831791  1
  V  V29  1  0.62831870  0.87661666  0.39543910  1
  V  V30  1  0.62612737  0.12318699  0.88738545  1
  V  V31  1  0.62558725  0.37607887  0.14006821  1
  Fe  Fe32  1  0.12280087  0.37435987  0.87816516  1
  Fe  Fe33  1  0.37368959  0.62669148  0.88070368  1
  Fe  Fe34  1  0.12436775  0.62538834  0.63730435  1
  Fe  Fe35  1  0.62633699  0.12656713  0.38313826  1
  Fe  Fe36  1  0.62511060  0.62642198  0.64636964  1
  Fe  Fe37  1  0.37570914  0.37362606  0.88144431  1
  Fe  Fe38  1  0.37522147  0.87361971  0.39117540  1
  Fe  Fe39  1  0.87564051  0.62686679  0.87615976  1
  Fe  Fe40  1  0.62606269  0.37667006  0.38618459  1
  Fe  Fe41  1  0.62627341  0.37213422  0.87508587  1
  Fe  Fe42  1  0.62429764  0.62603488  0.87421182  1
  Fe  Fe43  1  0.12504494  0.87546414  0.88147825  1
  Fe  Fe44  1  0.12406907  0.87467302  0.38294772  1
  Fe  Fe45  1  0.37625742  0.12343529  0.88157736  1
  Fe  Fe46  1  0.62398531  0.87728330  0.63328924  1
  Fe  Fe47  1  0.87726387  0.12854679  0.39856331  1
  Fe  Fe48  1  0.62289324  0.37243284  0.64747296  1
  Fe  Fe49  1  0.37243380  0.37357929  0.13359904  1
  Fe  Fe50  1  0.12611860  0.37593806  0.64663636  1
  Fe  Fe51  1  0.12058284  0.37371276  0.13489698  1
  Fe  Fe52  1  0.12531165  0.12179923  0.87960466  1
  Fe  Fe53  1  0.37798883  0.62599144  0.13763994  1
  Fe  Fe54  1  0.87832074  0.12179536  0.62756957  1
  Fe  Fe55  1  0.37462229  0.87759604  0.63582322  1
  Fe  Fe56  1  0.37418791  0.37586932  0.38764888  1
  Fe  Fe57  1  0.87296144  0.37455756  0.87962416  1
  Fe  Fe58  1  0.87468353  0.87556537  0.13594927  1
  Fe  Fe59  1  0.12194686  0.62495174  0.38741830  1
  Fe  Fe60  1  0.87226996  0.87606272  0.88722190  1
  Fe  Fe61  1  0.37486359  0.62234914  0.38515136  1
  Fe  Fe62  1  0.62639313  0.62604124  0.13392211  1
  Fe  Fe63  1  0.37600490  0.87433362  0.87867363  1
  Pb  Pb64  1  -0.00105786  -0.00518015  -0.00321157  1
  Pb  Pb65  1  -0.00555440  0.00471492  0.25373599  1
  Pb  Pb66  1  -0.00290987  0.00348696  0.50111303  1
  Pb  Pb67  1  0.00730111  -0.00285652  0.75224403  1
  Pb  Pb68  1  0.00896986  0.25795589  -0.00535265  1
  Pb  Pb69  1  -0.00827147  0.24383318  0.25353169  1
  Pb  Pb70  1  0.00631462  0.25818610  0.50719377  1
  Pb  Pb71  1  0.00263810  0.25284225  0.75401392  1
  Pb  Pb72  1  0.00209672  0.49651870  -0.00968488  1
  Pb  Pb73  1  0.00407651  0.50659023  0.25115464  1
  Pb  Pb74  1  0.00877444  0.50008177  0.50836394  1
  Pb  Pb75  1  0.00317350  0.49341268  0.75300109  1
  Pb  Pb76  1  -0.00669308  0.75539334  -0.00611724  1
  Pb  Pb77  1  0.00709046  0.74777133  0.25387752  1
  Pb  Pb78  1  0.00775331  0.74345366  0.50296492  1
  Pb  Pb79  1  -0.00592804  0.75607862  0.75230087  1
  Pb  Pb80  1  0.24982439  -0.00073079  -0.01086971  1
  Pb  Pb81  1  0.25177628  -0.01097170  0.25697408  1
  Pb  Pb82  1  0.25465613  -0.00690551  0.50151944  1
  Pb  Pb83  1  0.24258485  0.00063125  0.75280020  1
  Pb  Pb84  1  0.24828533  0.25399897  -0.01071257  1
  Pb  Pb85  1  0.25556909  0.25789507  0.24820749  1
  Pb  Pb86  1  0.24296290  0.25657983  0.50627029  1
  Pb  Pb87  1  0.25774031  0.24799524  0.75625331  1
  Pb  Pb88  1  0.25783927  0.49168012  -0.00683674  1
  Pb  Pb89  1  0.26038188  0.49720656  0.24964712  1
  Pb  Pb90  1  0.24732952  0.50603739  0.49940857  1
  Pb  Pb91  1  0.25567589  0.49997065  0.75187948  1
  Pb  Pb92  1  0.25522278  0.74825230  -0.00635127  1
  Pb  Pb93  1  0.24452100  0.74975892  0.25474240  1
  Pb  Pb94  1  0.24963713  0.74747012  0.49261330  1
  Pb  Pb95  1  0.26002857  0.75289581  0.75168792  1
  Pb  Pb96  1  0.49800783  -0.00167835  -0.00501967  1
  Pb  Pb97  1  0.49550831  -0.00498493  0.25664371  1
  Pb  Pb98  1  0.49947225  -0.01030132  0.50562832  1
  Pb  Pb99  1  0.49245856  -0.00162802  0.74702085  1
  Pb  Pb100  1  0.49123799  0.25960043  -0.00458584  1
  Pb  Pb101  1  0.50608057  0.25537128  0.25161578  1
  Pb  Pb102  1  0.51022999  0.26025035  0.50172533  1
  Pb  Pb103  1  0.49177432  0.24942104  0.75403439  1
  Pb  Pb104  1  0.49877171  0.50129033  -0.01248916  1
  Pb  Pb105  1  0.49102135  0.50195558  0.24911565  1
  Pb  Pb106  1  0.50191441  0.49732373  0.50128360  1
  Pb  Pb107  1  0.50098053  0.50607295  0.75182836  1
  Pb  Pb108  1  0.49548446  0.73276934  -0.00122739  1
  Pb  Pb109  1  0.49115235  0.74417719  0.25379006  1
  Pb  Pb110  1  0.49987541  0.75403220  0.50422859  1
  Pb  Pb111  1  0.50008737  0.75255295  0.74477126  1
  Pb  Pb112  1  0.75312551  -0.00519014  0.00288279  1
  Pb  Pb113  1  0.75333131  0.01161841  0.25668357  1
  Pb  Pb114  1  0.75187829  0.00404983  0.49925914  1
  Pb  Pb115  1  0.75917139  -0.00594362  0.74886346  1
  Pb  Pb116  1  0.74805172  0.25220103  -0.00462045  1
  Pb  Pb117  1  0.74525347  0.24890088  0.25704900  1
  Pb  Pb118  1  0.74514345  0.25203099  0.50035905  1
  Pb  Pb119  1  0.75221067  0.25579356  0.75131947  1
  Pb  Pb120  1  0.74519579  0.50456822  -0.01635543  1
  Pb  Pb121  1  0.74628735  0.49282005  0.25026479  1
  Pb  Pb122  1  0.73552078  0.50107418  0.51495936  1
  Pb  Pb123  1  0.74207446  0.49972899  0.75268560  1
  Pb  Pb124  1  0.74619584  0.74386689  -0.00698562  1
  Pb  Pb125  1  0.74952365  0.75170881  0.25052748  1
  Pb  Pb126  1  0.74095203  0.74585591  0.51208912  1
  Pb  Pb127  1  0.75428730  0.74846007  0.75010305  1
  O  O128  1  0.12402987  0.00541862  0.16811689  1
  O  O129  1  0.12346813  0.00525779  0.41021339  1
  O  O130  1  0.12661181  -0.00100543  0.66270996  1
  O  O131  1  0.12251978  0.00023979  0.91642301  1
  O  O132  1  0.12141965  0.24085742  0.16507396  1
  O  O133  1  0.12304149  0.25249502  0.41750864  1
  O  O134  1  0.12530483  0.24245231  0.66401139  1
  O  O135  1  0.12068164  0.24685531  0.90675390  1
  O  O136  1  0.11872265  0.50669383  0.16189845  1
  O  O137  1  0.11973292  0.49320039  0.41286643  1
  O  O138  1  0.12198198  0.50237242  0.66682290  1
  O  O139  1  0.12216881  0.50682289  0.90553557  1
  O  O140  1  0.12193836  0.74721788  0.16732361  1
  O  O141  1  0.12161517  0.75131209  0.41459204  1
  O  O142  1  0.12214074  0.75672993  0.66063605  1
  O  O143  1  0.12392556  0.74541419  0.91034878  1
  O  O144  1  0.37579388  0.00153517  0.17170764  1
  O  O145  1  0.37243625  0.01283651  0.41718023  1
  O  O146  1  0.37173345  0.00740849  0.66003344  1
  O  O147  1  0.38069038  -0.00138768  0.91168198  1
  O  O148  1  0.37504585  0.24493394  0.16445862  1
  O  O149  1  0.36923723  0.24479052  0.41820605  1
  O  O150  1  0.37220209  0.24761398  0.66310567  1
  O  O151  1  0.37688360  0.24704753  0.91316988  1
  O  O152  1  0.37516136  0.49871595  0.16308240  1
  O  O153  1  0.37554730  0.49923949  0.41973546  1
  O  O154  1  0.37289671  0.49708032  0.66156024  1
  O  O155  1  0.37431325  0.50084872  0.90786633  1
  O  O156  1  0.37544061  0.75508470  0.16755904  1
  O  O157  1  0.37817225  0.74751573  0.41389970  1
  O  O158  1  0.37323541  0.74578543  0.65509177  1
  O  O159  1  0.37434647  0.75155460  0.91179612  1
  O  O160  1  0.62597504  -0.00391728  0.17111418  1
  O  O161  1  0.62617649  -0.00506812  0.40919479  1
  O  O162  1  0.62085029  0.00907398  0.66199593  1
  O  O163  1  0.62677236  0.00218546  0.91584596  1
  O  O164  1  0.62940572  0.25241204  0.16759512  1
  O  O165  1  0.62790981  0.25098225  0.41628163  1
  O  O166  1  0.62288333  0.23760706  0.66369363  1
  O  O167  1  0.62850876  0.24062803  0.90985023  1
  O  O168  1  0.63084712  0.49349984  0.15907313  1
  O  O169  1  0.63006476  0.50557110  0.41631820  1
  O  O170  1  0.62697220  0.49849889  0.66573472  1
  O  O171  1  0.62675532  0.49879942  0.89980033  1
  O  O172  1  0.62635887  0.75816201  0.16722221  1
  O  O173  1  0.62902383  0.74755248  0.41995364  1
  O  O174  1  0.62594798  0.75413416  0.66221288  1
  O  O175  1  0.62794758  0.75958766  0.89841272  1
  O  O176  1  0.87497735  0.00373146  0.16840382  1
  O  O177  1  0.87434890  -0.01141850  0.41506794  1
  O  O178  1  0.87823639  -0.00307840  0.66105610  1
  O  O179  1  0.86893578  0.00667857  0.91560209  1
  O  O180  1  0.87549629  0.24986273  0.16766361  1
  O  O181  1  0.87797659  0.26093261  0.41728458  1
  O  O182  1  0.87604051  0.24831416  0.65605873  1
  O  O183  1  0.87041043  0.23934971  0.91058059  1
  O  O184  1  0.87462508  0.50322486  0.16483980  1
  O  O185  1  0.87740798  0.49686324  0.42119112  1
  O  O186  1  0.87750150  0.49903556  0.66240166  1
  O  O187  1  0.87414550  0.50155159  0.90428823  1
  O  O188  1  0.87345760  0.74413963  0.16272457  1
  O  O189  1  0.87170001  0.75161868  0.41877908  1
  O  O190  1  0.87772261  0.76073795  0.66151605  1
  O  O191  1  0.87402989  0.75003139  0.91279594  1
  O  O192  1  0.00127592  0.12339226  0.16859892  1
  O  O193  1  0.00978839  0.12753778  0.41861632  1
  O  O194  1  0.00567816  0.12151249  0.65889865  1
  O  O195  1  -0.00956170  0.12032117  0.90572424  1
  O  O196  1  -0.00512444  0.37510799  0.16821530  1
  O  O197  1  0.00118638  0.37480962  0.41864525  1
  O  O198  1  -0.00739742  0.37232398  0.66487724  1
  O  O199  1  -0.00290442  0.37337925  0.91058138  1
  O  O200  1  -0.00529944  0.62597679  0.16587288  1
  O  O201  1  -0.00742613  0.62429190  0.41958858  1
  O  O202  1  -0.00514705  0.63096492  0.66622620  1
  O  O203  1  0.00569027  0.62744862  0.90784314  1
  O  O204  1  0.00113291  0.87586957  0.16665295  1
  O  O205  1  -0.00661415  0.87295413  0.41053636  1
  O  O206  1  0.00143542  0.87905617  0.66149177  1
  O  O207  1  -0.00097855  0.87728126  0.91385511  1
  O  O208  1  0.24759424  0.12364739  0.16183789  1
  O  O209  1  0.24236997  0.12846615  0.41810814  1
  O  O210  1  0.24974455  0.12495189  0.66354430  1
  O  O211  1  0.25066903  0.12274522  0.90937642  1
  O  O212  1  0.24509586  0.37337817  0.16331082  1
  O  O213  1  0.24117979  0.37395182  0.41464575  1
  O  O214  1  0.25665556  0.37203770  0.66487299  1
  O  O215  1  0.24712982  0.37490857  0.90628866  1
  O  O216  1  0.24296286  0.62756302  0.15965917  1
  O  O217  1  0.24776186  0.62216962  0.41220594  1
  O  O218  1  0.25462267  0.62397223  0.66212131  1
  O  O219  1  0.24144279  0.62592672  0.91069734  1
  O  O220  1  0.24975992  0.87642211  0.16931095  1
  O  O221  1  0.24873404  0.87840658  0.41488597  1
  O  O222  1  0.24433122  0.87618562  0.65797134  1
  O  O223  1  0.25017559  0.87549393  0.91071904  1
  O  O224  1  0.49954931  0.12449675  0.16970897  1
  O  O225  1  0.49609121  0.12854087  0.40774871  1
  O  O226  1  0.49474570  0.12550766  0.65997245  1
  O  O227  1  0.50944845  0.12280192  0.91262050  1
  O  O228  1  0.50872472  0.37107599  0.15800422  1
  O  O229  1  0.50045979  0.37503874  0.41579452  1
  O  O230  1  0.49085457  0.37104694  0.66363667  1
  O  O231  1  0.50378909  0.37119028  0.90719892  1
  O  O232  1  0.50481028  0.62608256  0.16729767  1
  O  O233  1  0.51016549  0.62480078  0.41385831  1
  O  O234  1  0.49013766  0.62210065  0.66125353  1
  O  O235  1  0.50143938  0.62788049  0.90651414  1
  O  O236  1  0.50426004  0.87812667  0.16912030  1
  O  O237  1  0.50733139  0.87379900  0.41508706  1
  O  O238  1  0.49889385  0.87880755  0.66216424  1
  O  O239  1  0.50979167  0.88025121  0.90693391  1
  O  O240  1  0.75176662  0.12454775  0.16929920  1
  O  O241  1  0.75011657  0.12348627  0.41523701  1
  O  O242  1  0.74744948  0.12188111  0.65182013  1
  O  O243  1  0.74754071  0.12191131  0.91540301  1
  O  O244  1  0.75218960  0.37364256  0.16815798  1
  O  O245  1  0.75673299  0.37796776  0.41603708  1
  O  O246  1  0.75838559  0.37240903  0.66285964  1
  O  O247  1  0.74923969  0.36944712  0.91181783  1
  O  O248  1  0.75479221  0.62473210  0.16477768  1
  O  O249  1  0.75056016  0.62484350  0.42488483  1
  O  O250  1  0.76082013  0.62921392  0.66478308  1
  O  O251  1  0.74846712  0.62920322  0.90576409  1
  O  O252  1  0.74570523  0.87703179  0.16766207  1
  O  O253  1  0.74935495  0.87192512  0.41838491  1
  O  O254  1  0.75616126  0.88050873  0.65716066  1
  O  O255  1  0.74127676  0.88056616  0.91441415  1
  O  O256  1  0.12506529  0.12356875  0.05010014  1
  O  O257  1  0.12703111  0.12788454  0.29978984  1
  O  O258  1  0.12840980  0.12465822  0.55105335  1
  O  O259  1  0.12400026  0.11255834  0.77890983  1
  O  O260  1  0.11477481  0.37246890  0.03515538  1
  O  O261  1  0.12159839  0.37243723  0.30017298  1
  O  O262  1  0.12153251  0.37021788  0.54455246  1
  O  O263  1  0.11394712  0.37234827  0.77606816  1
  O  O264  1  0.12057023  0.62795720  0.05075178  1
  O  O265  1  0.11553062  0.62715714  0.28640021  1
  O  O266  1  0.11873813  0.62369078  0.53626267  1
  O  O267  1  0.12536392  0.63010246  0.79098470  1
  O  O268  1  0.12615435  0.87518197  0.05407085  1
  O  O269  1  0.12937965  0.87044350  0.28246556  1
  O  O270  1  0.12267071  0.87602413  0.54805514  1
  O  O271  1  0.12283137  0.88302966  0.78090778  1
  O  O272  1  0.38055613  0.12004196  0.04813831  1
  O  O273  1  0.37232503  0.12949536  0.30018807  1
  O  O274  1  0.37478473  0.12810535  0.54895258  1
  O  O275  1  0.37892577  0.13126754  0.78095627  1
  O  O276  1  0.37489472  0.37324246  0.03322401  1
  O  O277  1  0.36862740  0.37594156  0.28694199  1
  O  O278  1  0.37342832  0.37430024  0.55005275  1
  O  O279  1  0.37321626  0.36618344  0.78043649  1
  O  O280  1  0.38065519  0.63228908  0.03695544  1
  O  O281  1  0.38056893  0.61838895  0.28367197  1
  O  O282  1  0.37177499  0.62056362  0.54691694  1
  O  O283  1  0.36852138  0.62642893  0.77971251  1
  O  O284  1  0.37770186  0.87839093  0.05308016  1
  O  O285  1  0.37713499  0.88410387  0.29024905  1
  O  O286  1  0.38049452  0.88364046  0.53345387  1
  O  O287  1  0.37454111  0.87021989  0.77727550  1
  O  O288  1  0.62496207  0.12298152  0.05634093  1
  O  O289  1  0.63024767  0.13051407  0.28250025  1
  O  O290  1  0.62379552  0.12535275  0.54333527  1
  O  O291  1  0.62757457  0.12018702  0.79640871  1
  O  O292  1  0.63265031  0.37022930  0.04927385  1
  O  O293  1  0.62996357  0.37417251  0.28593687  1
  O  O294  1  0.62579462  0.37090778  0.54479231  1
  O  O295  1  0.63296734  0.36673883  0.77296116  1
  O  O296  1  0.62493882  0.63327891  0.03436094  1
  O  O297  1  0.63317739  0.62936491  0.30404622  1
  O  O298  1  0.63261361  0.62293341  0.54346620  1
  O  O299  1  0.62351185  0.62479952  0.77189740  1
  O  O300  1  0.62595871  0.87706734  0.05244311  1
  O  O301  1  0.63020561  0.86740329  0.30451057  1
  O  O302  1  0.62001346  0.87650194  0.53243279  1
  O  O303  1  0.62912066  0.88587342  0.79109635  1
  O  O304  1  0.87610694  0.12663112  0.04972673  1
  O  O305  1  0.88348900  0.12371277  0.29702543  1
  O  O306  1  0.87964843  0.11583462  0.52660659  1
  O  O307  1  0.86965115  0.12133266  0.79393407  1
  O  O308  1  0.87522039  0.37433550  0.04737344  1
  O  O309  1  0.87487658  0.38089606  0.30281689  1
  O  O310  1  0.87687023  0.37475612  0.54943396  1
  O  O311  1  0.87520683  0.36316887  0.77957072  1
  O  O312  1  0.87429276  0.62401936  0.04812656  1
  O  O313  1  0.87075510  0.62317675  0.30310873  1
  O  O314  1  0.87830291  0.62372734  0.55501650  1
  O  O315  1  0.87634726  0.63684156  0.77549105  1
  O  O316  1  0.87312229  0.87984282  0.03640362  1
  O  O317  1  0.86980876  0.86869223  0.30036263  1
  O  O318  1  0.87914650  0.87708379  0.54578739  1
  O  O319  1  0.86967948  0.87956560  0.78650771  1
