# generated using pymatgen
data_VFe(PbO3)2
_symmetry_space_group_name_H-M   'P 1'
_cell_length_a   15.38068927
_cell_length_b   15.38539250
_cell_length_c   18.52249546
_cell_angle_alpha   90.00251845
_cell_angle_beta   89.98614848
_cell_angle_gamma   89.99006980
_symmetry_Int_Tables_number   1
_chemical_formula_structural   VFe(PbO3)2
_chemical_formula_sum   'V32 Fe32 Pb64 O192'
_cell_volume   4383.12499559
_cell_formula_units_Z   32
loop_
 _symmetry_equiv_pos_site_id
 _symmetry_equiv_pos_as_xyz
  1  'x, y, z'
loop_
 _atom_site_type_symbol
 _atom_site_label
 _atom_site_symmetry_multiplicity
 _atom_site_fract_x
 _atom_site_fract_y
 _atom_site_fract_z
 _atom_site_occupancy
  V  V0  1  0.87473964  0.62429274  0.13737653  1
  V  V1  1  0.12314690  0.12378645  0.88705336  1
  V  V2  1  0.62030044  0.62029335  0.13897272  1
  V  V3  1  0.37386466  0.87475471  0.88951209  1
  V  V4  1  0.87530231  0.12818156  0.14315173  1
  V  V5  1  0.12354715  0.62420212  0.38924450  1
  V  V6  1  0.87604929  0.37495255  0.88669315  1
  V  V7  1  0.12435785  0.87482001  0.38932005  1
  V  V8  1  0.62184367  0.12792494  0.14166908  1
  V  V9  1  0.37335693  0.62748074  0.64050345  1
  V  V10  1  0.62803210  0.62609830  0.89161138  1
  V  V11  1  0.12520506  0.37319943  0.14380542  1
  V  V12  1  0.37693145  0.37217986  0.13996333  1
  V  V13  1  0.12862775  0.87266996  0.63529957  1
  V  V14  1  0.62426463  0.87698745  0.89002453  1
  V  V15  1  0.12465398  0.13084341  0.39588708  1
  V  V16  1  0.12684701  0.12465548  0.14388150  1
  V  V17  1  0.62569178  0.62211882  0.38715898  1
  V  V18  1  0.37338520  0.87669627  0.13972481  1
  V  V19  1  0.62181835  0.87261433  0.63482982  1
  V  V20  1  0.62679346  0.37670640  0.39055342  1
  V  V21  1  0.87548809  0.87332541  0.39352901  1
  V  V22  1  0.12633971  0.37876254  0.63471353  1
  V  V23  1  0.62149058  0.37619122  0.63960345  1
  V  V24  1  0.87420108  0.12444264  0.88577434  1
  V  V25  1  0.87464188  0.37449072  0.13943301  1
  V  V26  1  0.87477639  0.62506744  0.39140700  1
  V  V27  1  0.87561996  0.87539628  0.88998062  1
  V  V28  1  0.62243466  0.62544134  0.63958453  1
  V  V29  1  0.12537340  0.37348149  0.88585784  1
  V  V30  1  0.62650236  0.11601049  0.39473696  1
  V  V31  1  0.87689298  0.37419479  0.39963331  1
  Fe  Fe32  1  0.62709039  0.37373792  0.88026720  1
  Fe  Fe33  1  0.37516191  0.62340285  0.37861101  1
  Fe  Fe34  1  0.12567546  0.87803380  0.88754558  1
  Fe  Fe35  1  0.12258612  0.37790115  0.38519365  1
  Fe  Fe36  1  0.87534541  0.87757538  0.13615156  1
  Fe  Fe37  1  0.37309949  0.12573252  0.13924963  1
  Fe  Fe38  1  0.87416985  0.12428677  0.39781515  1
  Fe  Fe39  1  0.12725260  0.62496121  0.63580001  1
  Fe  Fe40  1  0.87493830  0.37763614  0.63121487  1
  Fe  Fe41  1  0.87411197  0.12371340  0.62696228  1
  Fe  Fe42  1  0.12344566  0.62351056  0.13276979  1
  Fe  Fe43  1  0.12185641  0.62739122  0.88651699  1
  Fe  Fe44  1  0.87385602  0.87321198  0.63294100  1
  Fe  Fe45  1  0.37375604  0.62430233  0.13453786  1
  Fe  Fe46  1  0.37443209  0.37745645  0.38659587  1
  Fe  Fe47  1  0.62632810  0.87850238  0.14711946  1
  Fe  Fe48  1  0.62808431  0.37238116  0.13837674  1
  Fe  Fe49  1  0.62750480  0.86877068  0.37921271  1
  Fe  Fe50  1  0.37604181  0.12515140  0.38960000  1
  Fe  Fe51  1  0.12636008  0.12565346  0.62653622  1
  Fe  Fe52  1  0.37458748  0.37517823  0.87885176  1
  Fe  Fe53  1  0.37737033  0.62689150  0.89423053  1
  Fe  Fe54  1  0.12276021  0.87808334  0.13507433  1
  Fe  Fe55  1  0.62376756  0.12329637  0.62670400  1
  Fe  Fe56  1  0.87256807  0.62717510  0.88483439  1
  Fe  Fe57  1  0.37447057  0.37813721  0.64153484  1
  Fe  Fe58  1  0.37666256  0.12424433  0.88413089  1
  Fe  Fe59  1  0.87413149  0.62571909  0.63899548  1
  Fe  Fe60  1  0.37712835  0.87136064  0.63153343  1
  Fe  Fe61  1  0.37474498  0.87213258  0.38962341  1
  Fe  Fe62  1  0.62820785  0.12310930  0.88119695  1
  Fe  Fe63  1  0.37527117  0.12381825  0.63025114  1
  Pb  Pb64  1  -0.00061243  -0.00791647  0.00364228  1
  Pb  Pb65  1  -0.00494450  0.00562968  0.25379340  1
  Pb  Pb66  1  0.00131590  0.00170028  0.50372360  1
  Pb  Pb67  1  0.00144615  -0.00405667  0.73906449  1
  Pb  Pb68  1  -0.00111190  0.24851065  -0.00271560  1
  Pb  Pb69  1  0.00243941  0.25190667  0.25746881  1
  Pb  Pb70  1  0.00051153  0.24469336  0.50490123  1
  Pb  Pb71  1  -0.00230962  0.24804395  0.73540515  1
  Pb  Pb72  1  0.00375254  0.50619018  -0.00301653  1
  Pb  Pb73  1  0.00480140  0.49498545  0.25028607  1
  Pb  Pb74  1  -0.00644377  0.50359934  0.50644872  1
  Pb  Pb75  1  -0.00231750  0.51119729  0.74651720  1
  Pb  Pb76  1  0.00795846  0.75157363  -0.00023795  1
  Pb  Pb77  1  0.00395601  0.75240447  0.24425661  1
  Pb  Pb78  1  0.00073732  0.74214799  0.50696579  1
  Pb  Pb79  1  0.00318099  0.74644599  0.74932097  1
  Pb  Pb80  1  0.25585264  0.00342376  0.00130508  1
  Pb  Pb81  1  0.25890890  0.00100587  0.25666433  1
  Pb  Pb82  1  0.25482330  0.00664782  0.50158766  1
  Pb  Pb83  1  0.25446472  0.00155951  0.74165328  1
  Pb  Pb84  1  0.25862418  0.24670692  -0.00256983  1
  Pb  Pb85  1  0.25101037  0.25849324  0.25754486  1
  Pb  Pb86  1  0.26436215  0.25533614  0.50155334  1
  Pb  Pb87  1  0.25779868  0.24643467  0.74204229  1
  Pb  Pb88  1  0.25455450  0.51099249  -0.00042805  1
  Pb  Pb89  1  0.25522609  0.50195566  0.24988118  1
  Pb  Pb90  1  0.25461317  0.49305244  0.49970230  1
  Pb  Pb91  1  0.25685084  0.50309975  0.75390071  1
  Pb  Pb92  1  0.24459842  0.74348449  -0.00008258  1
  Pb  Pb93  1  0.25126378  0.74570266  0.24346622  1
  Pb  Pb94  1  0.24533301  0.74455690  0.49780247  1
  Pb  Pb95  1  0.23626581  0.75194179  0.75773573  1
  Pb  Pb96  1  0.50084203  0.00734862  -0.00043467  1
  Pb  Pb97  1  0.48918777  -0.00004284  0.25863540  1
  Pb  Pb98  1  0.49052622  -0.00592173  0.49899749  1
  Pb  Pb99  1  0.49655493  0.01049181  0.74480142  1
  Pb  Pb100  1  0.50224338  0.25206443  -0.01126748  1
  Pb  Pb101  1  0.49098261  0.24974677  0.25497473  1
  Pb  Pb102  1  0.49781429  0.24387863  0.50281899  1
  Pb  Pb103  1  0.49790082  0.24235275  0.74661673  1
  Pb  Pb104  1  0.49590662  0.49635285  -0.00444881  1
  Pb  Pb105  1  0.48929138  0.49869089  0.25185617  1
  Pb  Pb106  1  0.49383834  0.49604687  0.49984215  1
  Pb  Pb107  1  0.49239860  0.49986101  0.75740686  1
  Pb  Pb108  1  0.50650503  0.75844924  0.00577381  1
  Pb  Pb109  1  0.49347143  0.76368111  0.25457843  1
  Pb  Pb110  1  0.49458488  0.75532702  0.49409312  1
  Pb  Pb111  1  0.49356934  0.74391180  0.75399105  1
  Pb  Pb112  1  0.75237324  -0.00554935  0.00281623  1
  Pb  Pb113  1  0.75275338  0.00426299  0.25288408  1
  Pb  Pb114  1  0.75670716  -0.00572488  0.50383599  1
  Pb  Pb115  1  0.74523647  0.00676716  0.74042165  1
  Pb  Pb116  1  0.74226808  0.25148557  -0.00242460  1
  Pb  Pb117  1  0.75523366  0.24230151  0.25809549  1
  Pb  Pb118  1  0.74686402  0.24555758  0.50604044  1
  Pb  Pb119  1  0.74296559  0.24903684  0.74261766  1
  Pb  Pb120  1  0.74334938  0.49427799  0.00030202  1
  Pb  Pb121  1  0.75116375  0.49843588  0.25088339  1
  Pb  Pb122  1  0.75766317  0.50169546  0.50666638  1
  Pb  Pb123  1  0.74881255  0.49674838  0.74846157  1
  Pb  Pb124  1  0.74995253  0.76164348  0.00664711  1
  Pb  Pb125  1  0.74755543  0.75315578  0.24875447  1
  Pb  Pb126  1  0.75753119  0.74827571  0.50333550  1
  Pb  Pb127  1  0.75558552  0.74728343  0.74910823  1
  O  O128  1  0.12375134  0.00844572  0.16788423  1
  O  O129  1  0.12045987  -0.00907265  0.41237600  1
  O  O130  1  0.12655280  -0.00768828  0.65656036  1
  O  O131  1  0.12177820  0.00828871  0.91214957  1
  O  O132  1  0.12296815  0.24596365  0.17239779  1
  O  O133  1  0.12139810  0.24687278  0.41193903  1
  O  O134  1  0.12599648  0.25674516  0.65507225  1
  O  O135  1  0.12018578  0.24772000  0.91511569  1
  O  O136  1  0.12255422  0.49499120  0.16420366  1
  O  O137  1  0.11712004  0.50873202  0.40757523  1
  O  O138  1  0.12608822  0.49645157  0.66184477  1
  O  O139  1  0.11841796  0.48982608  0.90731473  1
  O  O140  1  0.12310292  0.75050166  0.16271824  1
  O  O141  1  0.11958114  0.75097499  0.41583766  1
  O  O142  1  0.12750770  0.75504166  0.66416515  1
  O  O143  1  0.12274884  0.75382095  0.91598035  1
  O  O144  1  0.37490152  -0.00245190  0.16758147  1
  O  O145  1  0.37570014  -0.00103494  0.41379357  1
  O  O146  1  0.37688316  -0.00427411  0.65894840  1
  O  O147  1  0.37609968  -0.00524556  0.91594247  1
  O  O148  1  0.37458874  0.25350327  0.16731949  1
  O  O149  1  0.37558899  0.25181891  0.41236544  1
  O  O150  1  0.37492135  0.25144458  0.65884768  1
  O  O151  1  0.37157472  0.25061440  0.91150622  1
  O  O152  1  0.37337711  0.49115277  0.16115353  1
  O  O153  1  0.37453127  0.50362157  0.41581687  1
  O  O154  1  0.37736119  0.50914353  0.66748796  1
  O  O155  1  0.37472836  0.49770187  0.91546393  1
  O  O156  1  0.37496879  0.75603295  0.15798925  1
  O  O157  1  0.37562225  0.74439362  0.41044537  1
  O  O158  1  0.37975239  0.74426611  0.66425435  1
  O  O159  1  0.37888888  0.75911899  0.91715937  1
  O  O160  1  0.62876586  0.01112124  0.16637749  1
  O  O161  1  0.62816072  0.00021979  0.40433471  1
  O  O162  1  0.62322268  -0.00866443  0.65058359  1
  O  O163  1  0.62692174  -0.00360393  0.91566726  1
  O  O164  1  0.62683348  0.24488072  0.17057922  1
  O  O165  1  0.62919321  0.26300714  0.41454370  1
  O  O166  1  0.62464530  0.25773601  0.65456271  1
  O  O167  1  0.63021671  0.24876768  0.91205359  1
  O  O168  1  0.63016338  0.50317004  0.16750835  1
  O  O169  1  0.63143839  0.50119994  0.41785698  1
  O  O170  1  0.62231777  0.50596939  0.66468918  1
  O  O171  1  0.62960876  0.50606808  0.91083880  1
  O  O172  1  0.62820696  0.73533726  0.16510624  1
  O  O173  1  0.63079780  0.73880702  0.40759936  1
  O  O174  1  0.62172892  0.74476323  0.66501466  1
  O  O175  1  0.62674495  0.75168705  0.91977061  1
  O  O176  1  0.87400357  0.00736314  0.16832067  1
  O  O177  1  0.87419043  -0.00804644  0.41459710  1
  O  O178  1  0.87295551  -0.00256910  0.66077455  1
  O  O179  1  0.87385271  -0.00055744  0.91517145  1
  O  O180  1  0.87660424  0.25064838  0.17042906  1
  O  O181  1  0.87467679  0.25634868  0.41762723  1
  O  O182  1  0.87386615  0.25154324  0.65509566  1
  O  O183  1  0.87711457  0.25098352  0.91349821  1
  O  O184  1  0.87652524  0.49893543  0.16570100  1
  O  O185  1  0.87757218  0.50120910  0.41785274  1
  O  O186  1  0.87364976  0.49972211  0.66565848  1
  O  O187  1  0.87645164  0.49114469  0.90967798  1
  O  O188  1  0.87495213  0.74142683  0.15837759  1
  O  O189  1  0.87413721  0.75035881  0.41646975  1
  O  O190  1  0.87090113  0.75160097  0.66571427  1
  O  O191  1  0.87264525  0.75888488  0.91112883  1
  O  O192  1  0.00227545  0.12732117  0.16979317  1
  O  O193  1  0.00472885  0.12121527  0.41740686  1
  O  O194  1  0.00161507  0.12326371  0.65615934  1
  O  O195  1  0.00054924  0.12611717  0.91528296  1
  O  O196  1  -0.00206539  0.37216578  0.16993728  1
  O  O197  1  -0.00394229  0.37646918  0.41902932  1
  O  O198  1  0.00710524  0.37686147  0.65895231  1
  O  O199  1  -0.00140246  0.36969508  0.91520007  1
  O  O200  1  -0.00705354  0.62088607  0.16244733  1
  O  O201  1  -0.00081811  0.62936531  0.41793402  1
  O  O202  1  0.00179634  0.62743565  0.66201661  1
  O  O203  1  -0.00453386  0.62416962  0.91592517  1
  O  O204  1  -0.00193359  0.87873356  0.16812576  1
  O  O205  1  -0.00222543  0.87098116  0.41672070  1
  O  O206  1  0.00618030  0.87304071  0.65664534  1
  O  O207  1  -0.00707240  0.88027419  0.91124511  1
  O  O208  1  0.24312000  0.12730514  0.16804158  1
  O  O209  1  0.24266971  0.12039237  0.41207851  1
  O  O210  1  0.24847904  0.12304855  0.65904086  1
  O  O211  1  0.24105109  0.12572057  0.91074188  1
  O  O212  1  0.25195949  0.37045006  0.16625478  1
  O  O213  1  0.24616756  0.37862784  0.41377923  1
  O  O214  1  0.24287700  0.37916786  0.66388455  1
  O  O215  1  0.23961419  0.37104110  0.90787422  1
  O  O216  1  0.24903383  0.62300724  0.16266177  1
  O  O217  1  0.24033670  0.62839295  0.40524574  1
  O  O218  1  0.25758410  0.62664630  0.66188120  1
  O  O219  1  0.24838951  0.62585025  0.91388965  1
  O  O220  1  0.25428154  0.87847126  0.16338918  1
  O  O221  1  0.24034211  0.87087025  0.40942497  1
  O  O222  1  0.24750305  0.87168962  0.65948459  1
  O  O223  1  0.25749449  0.87708411  0.91181636  1
  O  O224  1  0.50502623  0.12756388  0.16166224  1
  O  O225  1  0.50910838  0.13070275  0.41196071  1
  O  O226  1  0.50156193  0.12584271  0.65915497  1
  O  O227  1  0.50207970  0.12347157  0.91400521  1
  O  O228  1  0.49590232  0.37294056  0.16116947  1
  O  O229  1  0.50932053  0.38197732  0.41170805  1
  O  O230  1  0.50564231  0.38120616  0.66280200  1
  O  O231  1  0.50138777  0.37559769  0.90709108  1
  O  O232  1  0.50455766  0.61796668  0.15449785  1
  O  O233  1  0.50959827  0.61905675  0.40567030  1
  O  O234  1  0.50089130  0.62505662  0.66758951  1
  O  O235  1  0.51154708  0.62784832  0.92002615  1
  O  O236  1  0.49468372  0.87569413  0.16447987  1
  O  O237  1  0.50560194  0.87084553  0.41141853  1
  O  O238  1  0.50734445  0.86888718  0.66252846  1
  O  O239  1  0.49935603  0.87628035  0.91849633  1
  O  O240  1  0.74993289  0.12931891  0.17013153  1
  O  O241  1  0.74329485  0.12999226  0.41737337  1
  O  O242  1  0.74758027  0.12354392  0.65598828  1
  O  O243  1  0.75644822  0.12346239  0.91312065  1
  O  O244  1  0.75547903  0.37380308  0.16933235  1
  O  O245  1  0.75200519  0.38040962  0.41776213  1
  O  O246  1  0.74249377  0.38096241  0.65970302  1
  O  O247  1  0.75869332  0.37311131  0.91133543  1
  O  O248  1  0.75643458  0.61973596  0.16511811  1
  O  O249  1  0.75151669  0.62158030  0.41540079  1
  O  O250  1  0.73992598  0.62532468  0.66251945  1
  O  O251  1  0.74523338  0.62840653  0.91699468  1
  O  O252  1  0.75326707  0.87410849  0.16993446  1
  O  O253  1  0.75439159  0.87137320  0.41172036  1
  O  O254  1  0.73781894  0.87020308  0.66284322  1
  O  O255  1  0.75148031  0.87749334  0.91690422  1
  O  O256  1  0.12459813  0.12689356  0.05307379  1
  O  O257  1  0.12216905  0.12404616  0.30436415  1
  O  O258  1  0.12456435  0.11983330  0.52620647  1
  O  O259  1  0.12165485  0.12567591  0.79654643  1
  O  O260  1  0.12327987  0.36770177  0.05319528  1
  O  O261  1  0.11998830  0.37118319  0.28514396  1
  O  O262  1  0.12803288  0.38102800  0.54323638  1
  O  O263  1  0.12146886  0.36877360  0.79574801  1
  O  O264  1  0.12193785  0.62246357  0.03243034  1
  O  O265  1  0.11700261  0.63021721  0.29816505  1
  O  O266  1  0.12891405  0.63376051  0.53560452  1
  O  O267  1  0.12260662  0.63509661  0.78543783  1
  O  O268  1  0.11624330  0.88128143  0.03509721  1
  O  O269  1  0.12025115  0.87214392  0.29835755  1
  O  O270  1  0.12982421  0.86854248  0.54395837  1
  O  O271  1  0.12814486  0.87218404  0.78804998  1
  O  O272  1  0.36477295  0.12144170  0.03953993  1
  O  O273  1  0.37850563  0.11950589  0.28735715  1
  O  O274  1  0.37506644  0.12473880  0.52795479  1
  O  O275  1  0.37945765  0.12194916  0.78407099  1
  O  O276  1  0.37183051  0.36930905  0.04898103  1
  O  O277  1  0.37816190  0.37770852  0.28571187  1
  O  O278  1  0.37013893  0.38373780  0.53963917  1
  O  O279  1  0.37065679  0.38391735  0.77800584  1
  O  O280  1  0.37061294  0.61953250  0.03345697  1
  O  O281  1  0.37502037  0.61549325  0.27771738  1
  O  O282  1  0.37741911  0.62459656  0.54929394  1
  O  O283  1  0.38542249  0.62444279  0.79382176  1
  O  O284  1  0.37412243  0.88257877  0.04879393  1
  O  O285  1  0.38068367  0.87813034  0.28772777  1
  O  O286  1  0.38476139  0.87071220  0.53106744  1
  O  O287  1  0.37785616  0.87380377  0.79857629  1
  O  O288  1  0.62824442  0.13008219  0.05054963  1
  O  O289  1  0.62923349  0.13064850  0.30370623  1
  O  O290  1  0.62283584  0.13206152  0.52605300  1
  O  O291  1  0.62685631  0.12432044  0.78099153  1
  O  O292  1  0.63638778  0.37530841  0.03919037  1
  O  O293  1  0.62962092  0.37908885  0.29941152  1
  O  O294  1  0.62096750  0.38247194  0.54830775  1
  O  O295  1  0.63438719  0.37341037  0.78110263  1
  O  O296  1  0.63068552  0.61884661  0.04805316  1
  O  O297  1  0.63154325  0.61615069  0.29636759  1
  O  O298  1  0.61987799  0.62564883  0.54883490  1
  O  O299  1  0.62538776  0.63065359  0.80076708  1
  O  O300  1  0.62937321  0.86967705  0.04622173  1
  O  O301  1  0.62258655  0.86412974  0.27811607  1
  O  O302  1  0.62299989  0.86490172  0.54354192  1
  O  O303  1  0.62385783  0.87438541  0.79980797  1
  O  O304  1  0.87551662  0.12853225  0.05227485  1
  O  O305  1  0.87069930  0.12473192  0.29716131  1
  O  O306  1  0.87434676  0.12071536  0.52460693  1
  O  O307  1  0.87584565  0.12400308  0.79501784  1
  O  O308  1  0.87557240  0.37426022  0.04848286  1
  O  O309  1  0.87661616  0.37756499  0.30826020  1
  O  O310  1  0.87532568  0.38705592  0.53107678  1
  O  O311  1  0.87731744  0.37209800  0.79604425  1
  O  O312  1  0.87319362  0.62034892  0.04647263  1
  O  O313  1  0.87677210  0.62460318  0.30058548  1
  O  O314  1  0.87275583  0.62484935  0.53704875  1
  O  O315  1  0.87252061  0.62705306  0.78516645  1
  O  O316  1  0.87138094  0.88214296  0.03598926  1
  O  O317  1  0.87775088  0.87188613  0.30238085  1
  O  O318  1  0.86266774  0.87258173  0.53302207  1
  O  O319  1  0.87139266  0.87888615  0.79917742  1
