# generated using pymatgen
data_VFe(PbO3)2
_symmetry_space_group_name_H-M   'P 1'
_cell_length_a   15.38357056
_cell_length_b   15.38633621
_cell_length_c   18.48195013
_cell_angle_alpha   90.00326707
_cell_angle_beta   90.01791874
_cell_angle_gamma   90.00384588
_symmetry_Int_Tables_number   1
_chemical_formula_structural   VFe(PbO3)2
_chemical_formula_sum   'V32 Fe32 Pb64 O192'
_cell_volume   4374.61801324
_cell_formula_units_Z   32
loop_
 _symmetry_equiv_pos_site_id
 _symmetry_equiv_pos_as_xyz
  1  'x, y, z'
loop_
 _atom_site_type_symbol
 _atom_site_label
 _atom_site_symmetry_multiplicity
 _atom_site_fract_x
 _atom_site_fract_y
 _atom_site_fract_z
 _atom_site_occupancy
  V  V0  1  0.62359767  0.62786686  0.88631601  1
  V  V1  1  0.37730716  0.62317098  0.64532904  1
  V  V2  1  0.62388335  0.87391438  0.38836807  1
  V  V3  1  0.37276429  0.61989057  0.39368016  1
  V  V4  1  0.62654742  0.87391708  0.63618197  1
  V  V5  1  0.37322241  0.12231350  0.14121511  1
  V  V6  1  0.62393103  0.87572830  0.88636184  1
  V  V7  1  0.37625406  0.37546300  0.39137820  1
  V  V8  1  0.62592600  0.37619907  0.64725838  1
  V  V9  1  0.37488571  0.62401982  0.13651212  1
  V  V10  1  0.12594196  0.87091609  0.14107442  1
  V  V11  1  0.12485121  0.87927519  0.88549408  1
  V  V12  1  0.12500613  0.37833553  0.38893737  1
  V  V13  1  0.62642382  0.62678443  0.13684530  1
  V  V14  1  0.37441124  0.87643311  0.88957154  1
  V  V15  1  0.87291587  0.62384709  0.64617340  1
  V  V16  1  0.87477019  0.37719775  0.38920249  1
  V  V17  1  0.37343357  0.37383562  0.65092151  1
  V  V18  1  0.37415853  0.12356045  0.88648607  1
  V  V19  1  0.87467821  0.37346931  0.64825844  1
  V  V20  1  0.62607752  0.62523397  0.39491318  1
  V  V21  1  0.12584581  0.12317892  0.13966695  1
  V  V22  1  0.12414292  0.62571551  0.39262340  1
  V  V23  1  0.12335208  0.62504720  0.64726301  1
  V  V24  1  0.37372281  0.36946936  0.13640286  1
  V  V25  1  0.87421037  0.12453086  0.64060470  1
  V  V26  1  0.12372951  0.87687955  0.63681819  1
  V  V27  1  0.12679494  0.11965902  0.88726358  1
  V  V28  1  0.37585307  0.12571142  0.63672712  1
  V  V29  1  0.62560378  0.37737086  0.38902747  1
  V  V30  1  0.88020445  0.62629420  0.13300084  1
  V  V31  1  0.12542642  0.87350997  0.39045876  1
  Fe  Fe32  1  0.62554898  0.12681431  0.38373484  1
  Fe  Fe33  1  0.62615524  0.62373698  0.63631776  1
  Fe  Fe34  1  0.12672173  0.63050905  0.88447010  1
  Fe  Fe35  1  0.12667270  0.37326845  0.13006674  1
  Fe  Fe36  1  0.62245445  0.37364127  0.88661330  1
  Fe  Fe37  1  0.62246510  0.87496528  0.13710072  1
  Fe  Fe38  1  0.37506927  0.87221486  0.39757693  1
  Fe  Fe39  1  0.62202445  0.12037030  0.87930494  1
  Fe  Fe40  1  0.62616182  0.12696015  0.64568118  1
  Fe  Fe41  1  0.87477920  0.12402403  0.12899439  1
  Fe  Fe42  1  0.62371455  0.37691752  0.13020298  1
  Fe  Fe43  1  0.87703758  0.62164128  0.38773845  1
  Fe  Fe44  1  0.87413546  0.87477470  0.14061256  1
  Fe  Fe45  1  0.37516476  0.87421698  0.62847365  1
  Fe  Fe46  1  0.12365320  0.37588296  0.65001744  1
  Fe  Fe47  1  0.12323543  0.12571739  0.63239647  1
  Fe  Fe48  1  0.12478427  0.12686131  0.39240893  1
  Fe  Fe49  1  0.12733969  0.37310479  0.87857695  1
  Fe  Fe50  1  0.87499629  0.87078685  0.38464914  1
  Fe  Fe51  1  0.12950941  0.62676508  0.12772512  1
  Fe  Fe52  1  0.87478797  0.37480448  0.88689994  1
  Fe  Fe53  1  0.87564806  0.37428600  0.12612578  1
  Fe  Fe54  1  0.87334791  0.62933762  0.88305673  1
  Fe  Fe55  1  0.37503394  0.12869731  0.38716626  1
  Fe  Fe56  1  0.87544715  0.12690088  0.38325385  1
  Fe  Fe57  1  0.87378266  0.87628042  0.87768951  1
  Fe  Fe58  1  0.37844212  0.62836766  0.88042810  1
  Fe  Fe59  1  0.37302036  0.87436846  0.14020710  1
  Fe  Fe60  1  0.62222307  0.12577325  0.13464021  1
  Fe  Fe61  1  0.87497907  0.87431787  0.64309402  1
  Fe  Fe62  1  0.37577948  0.37595118  0.87609550  1
  Fe  Fe63  1  0.87546059  0.12043194  0.89003161  1
  Pb  Pb64  1  -0.01462047  -0.00426195  0.00429011  1
  Pb  Pb65  1  -0.00826982  0.00554236  0.25154009  1
  Pb  Pb66  1  -0.00684706  -0.00004293  0.49607309  1
  Pb  Pb67  1  -0.01271071  0.00339313  0.75333257  1
  Pb  Pb68  1  -0.00584352  0.26161353  -0.00347287  1
  Pb  Pb69  1  -0.00568600  0.24539564  0.24364484  1
  Pb  Pb70  1  0.00548355  0.24815208  0.50213289  1
  Pb  Pb71  1  0.00008395  0.25343926  0.75506236  1
  Pb  Pb72  1  0.00540246  0.49871120  -0.01345611  1
  Pb  Pb73  1  0.00425330  0.49748025  0.23869874  1
  Pb  Pb74  1  0.00618081  0.49277287  0.50696235  1
  Pb  Pb75  1  -0.00416040  0.50007166  0.76073667  1
  Pb  Pb76  1  -0.00551079  0.75255348  -0.00543348  1
  Pb  Pb77  1  -0.01059358  0.74611535  0.25439279  1
  Pb  Pb78  1  -0.00795579  0.75340969  0.50487402  1
  Pb  Pb79  1  -0.00009613  0.74508498  0.75447780  1
  Pb  Pb80  1  0.25729118  -0.00665553  0.00412144  1
  Pb  Pb81  1  0.25003416  0.00753230  0.25902105  1
  Pb  Pb82  1  0.25325228  0.00379022  0.49772302  1
  Pb  Pb83  1  0.25067005  -0.00151685  0.74263074  1
  Pb  Pb84  1  0.24722609  0.25708020  -0.00574784  1
  Pb  Pb85  1  0.24674780  0.24044775  0.25768975  1
  Pb  Pb86  1  0.24312789  0.24999971  0.50391723  1
  Pb  Pb87  1  0.24488528  0.25318630  0.74955353  1
  Pb  Pb88  1  0.24462133  0.50274370  -0.01352675  1
  Pb  Pb89  1  0.24705759  0.49997829  0.24331062  1
  Pb  Pb90  1  0.24331414  0.48984751  0.50870483  1
  Pb  Pb91  1  0.24633567  0.50731444  0.75824101  1
  Pb  Pb92  1  0.25000583  0.74505994  -0.00155796  1
  Pb  Pb93  1  0.25407671  0.75669348  0.25426098  1
  Pb  Pb94  1  0.25318192  0.74946936  0.50559028  1
  Pb  Pb95  1  0.25051591  0.74430730  0.75226444  1
  Pb  Pb96  1  0.50906650  -0.00034991  0.00545755  1
  Pb  Pb97  1  0.50260662  0.00184109  0.25149981  1
  Pb  Pb98  1  0.50158288  0.00599135  0.49752095  1
  Pb  Pb99  1  0.50570365  0.00157934  0.74556835  1
  Pb  Pb100  1  0.51350511  0.24904604  -0.00318411  1
  Pb  Pb101  1  0.50408684  0.24369601  0.25131546  1
  Pb  Pb102  1  0.50604558  0.24393998  0.50384521  1
  Pb  Pb103  1  0.50412031  0.25470530  0.75662784  1
  Pb  Pb104  1  0.49944413  0.49407250  -0.00750894  1
  Pb  Pb105  1  0.49863990  0.50186330  0.24636316  1
  Pb  Pb106  1  0.50338587  0.50250994  0.50633696  1
  Pb  Pb107  1  0.50118297  0.49300902  0.75697139  1
  Pb  Pb108  1  0.49938450  0.76289329  0.00338811  1
  Pb  Pb109  1  0.49259753  0.75815242  0.25423742  1
  Pb  Pb110  1  0.50152381  0.74769913  0.50425990  1
  Pb  Pb111  1  0.49665847  0.74856114  0.74730732  1
  Pb  Pb112  1  0.75072371  0.00789447  0.00011277  1
  Pb  Pb113  1  0.74982023  0.00690413  0.24198161  1
  Pb  Pb114  1  0.75349978  0.00012105  0.49539522  1
  Pb  Pb115  1  0.75333697  0.00888767  0.75456266  1
  Pb  Pb116  1  0.75088278  0.24576577  -0.00981217  1
  Pb  Pb117  1  0.74986036  0.24667936  0.23656936  1
  Pb  Pb118  1  0.74576076  0.24139544  0.50182829  1
  Pb  Pb119  1  0.75258492  0.25573754  0.76172499  1
  Pb  Pb120  1  0.75425189  0.49099581  -0.00597558  1
  Pb  Pb121  1  0.75481120  0.50109446  0.24293283  1
  Pb  Pb122  1  0.74700347  0.50341415  0.50401135  1
  Pb  Pb123  1  0.75370235  0.49526125  0.76025801  1
  Pb  Pb124  1  0.75285645  0.76311425  -0.00155053  1
  Pb  Pb125  1  0.75595896  0.75177707  0.25128907  1
  Pb  Pb126  1  0.75618648  0.75335008  0.50265512  1
  Pb  Pb127  1  0.75520765  0.75036495  0.75084280  1
  O  O128  1  0.13077223  0.00346239  0.16712669  1
  O  O129  1  0.12498622  -0.00903624  0.41107031  1
  O  O130  1  0.12699630  -0.00453800  0.65665332  1
  O  O131  1  0.13417264  -0.00454006  0.91749161  1
  O  O132  1  0.12926285  0.24276282  0.16120379  1
  O  O133  1  0.12408310  0.25959191  0.41533487  1
  O  O134  1  0.12333320  0.24651486  0.66723202  1
  O  O135  1  0.13095899  0.23616059  0.90530664  1
  O  O136  1  0.12822191  0.50197770  0.16079910  1
  O  O137  1  0.12483609  0.49985012  0.42302402  1
  O  O138  1  0.12394320  0.50663402  0.67235440  1
  O  O139  1  0.12942181  0.50084205  0.90003875  1
  O  O140  1  0.12968338  0.75409992  0.15958369  1
  O  O141  1  0.12612130  0.74680234  0.41830228  1
  O  O142  1  0.12492874  0.75124488  0.66486671  1
  O  O143  1  0.13091670  0.76414604  0.90974854  1
  O  O144  1  0.37173925  0.00632519  0.16371231  1
  O  O145  1  0.37513376  0.00060014  0.41483413  1
  O  O146  1  0.37504247  0.00408516  0.65546292  1
  O  O147  1  0.37377098  -0.00336895  0.91751218  1
  O  O148  1  0.37225695  0.25307723  0.16018945  1
  O  O149  1  0.37651044  0.25944846  0.41889191  1
  O  O150  1  0.37619337  0.24528744  0.66599200  1
  O  O151  1  0.37325815  0.23854429  0.90471597  1
  O  O152  1  0.37404357  0.50271192  0.16125318  1
  O  O153  1  0.37613749  0.49717758  0.42466523  1
  O  O154  1  0.37507178  0.50387403  0.66868892  1
  O  O155  1  0.37620178  0.50195790  0.90262383  1
  O  O156  1  0.37445457  0.74179434  0.16492434  1
  O  O157  1  0.37445202  0.73931866  0.42155709  1
  O  O158  1  0.37495338  0.74585073  0.66006447  1
  O  O159  1  0.37708737  0.75961629  0.91087240  1
  O  O160  1  0.61837843  0.00042133  0.16643962  1
  O  O161  1  0.62519770  -0.00719984  0.40890932  1
  O  O162  1  0.62354228  -0.00686031  0.66054889  1
  O  O163  1  0.61790373  -0.00811779  0.91012646  1
  O  O164  1  0.61898226  0.25352714  0.16090871  1
  O  O165  1  0.62606392  0.26035192  0.41230036  1
  O  O166  1  0.62797551  0.25777194  0.66933426  1
  O  O167  1  0.61988126  0.24466683  0.90563152  1
  O  O168  1  0.62115815  0.50791278  0.16470704  1
  O  O169  1  0.62540576  0.49607211  0.41977914  1
  O  O170  1  0.62752499  0.49589919  0.66853950  1
  O  O171  1  0.62290091  0.51060535  0.90615222  1
  O  O172  1  0.61991456  0.73944122  0.16456563  1
  O  O173  1  0.62423448  0.74990217  0.41646780  1
  O  O174  1  0.62456144  0.75352198  0.66177334  1
  O  O175  1  0.62048284  0.75696609  0.91343084  1
  O  O176  1  0.87942203  -0.00000576  0.16379923  1
  O  O177  1  0.87507038  -0.00280189  0.41140022  1
  O  O178  1  0.87472390  0.00576359  0.65899167  1
  O  O179  1  0.87623153  -0.00624990  0.91560980  1
  O  O180  1  0.87892622  0.24943752  0.15619737  1
  O  O181  1  0.87353497  0.26239935  0.41457126  1
  O  O182  1  0.87294118  0.25246424  0.66760288  1
  O  O183  1  0.87661201  0.24604725  0.90798953  1
  O  O184  1  0.87368762  0.50935818  0.15653888  1
  O  O185  1  0.87374810  0.49335231  0.41911698  1
  O  O186  1  0.87393005  0.50003462  0.66879064  1
  O  O187  1  0.87281651  0.50428840  0.90951101  1
  O  O188  1  0.87475226  0.74211451  0.16406357  1
  O  O189  1  0.87591894  0.74683822  0.41966082  1
  O  O190  1  0.87554885  0.74374249  0.66386531  1
  O  O191  1  0.87347833  0.75568962  0.91318621  1
  O  O192  1  0.00861205  0.12292858  0.15852552  1
  O  O193  1  -0.00195311  0.12852885  0.41746331  1
  O  O194  1  -0.00772218  0.12719881  0.66247394  1
  O  O195  1  0.01356857  0.11433286  0.90823870  1
  O  O196  1  0.00103091  0.37763528  0.15983778  1
  O  O197  1  -0.00351056  0.37899864  0.41380143  1
  O  O198  1  -0.00856939  0.37683865  0.66843684  1
  O  O199  1  0.00348267  0.37230409  0.90672466  1
  O  O200  1  -0.00296638  0.62656246  0.15221777  1
  O  O201  1  0.00598855  0.62108182  0.41808234  1
  O  O202  1  -0.00377563  0.62417450  0.66948375  1
  O  O203  1  0.00089137  0.63180742  0.90776189  1
  O  O204  1  0.01153564  0.87572613  0.16637826  1
  O  O205  1  0.00715646  0.86942989  0.41487469  1
  O  O206  1  0.00831181  0.87286256  0.66257572  1
  O  O207  1  0.00888893  0.87845790  0.90367620  1
  O  O208  1  0.25211289  0.12682014  0.16838213  1
  O  O209  1  0.25084995  0.12955143  0.41998816  1
  O  O210  1  0.25659673  0.12518666  0.65978083  1
  O  O211  1  0.25310857  0.11694617  0.91664958  1
  O  O212  1  0.25727456  0.37760828  0.16259376  1
  O  O213  1  0.24939611  0.37922349  0.41717205  1
  O  O214  1  0.25292280  0.37667125  0.66854458  1
  O  O215  1  0.25275080  0.36876937  0.90464645  1
  O  O216  1  0.25731919  0.62444880  0.16180245  1
  O  O217  1  0.24792609  0.62010247  0.42125783  1
  O  O218  1  0.25244646  0.62557936  0.66594436  1
  O  O219  1  0.25407082  0.63247495  0.91092790  1
  O  O220  1  0.24492027  0.87636950  0.17133297  1
  O  O221  1  0.24176803  0.86923303  0.41834542  1
  O  O222  1  0.24527154  0.87287474  0.65960095  1
  O  O223  1  0.25432366  0.87738369  0.91234265  1
  O  O224  1  0.48923258  0.12851680  0.16319795  1
  O  O225  1  0.50217788  0.12902527  0.41769224  1
  O  O226  1  0.49299074  0.12596236  0.66380487  1
  O  O227  1  0.49022905  0.11640278  0.90726126  1
  O  O228  1  0.48950385  0.37994106  0.16334060  1
  O  O229  1  0.50560973  0.37880074  0.41520031  1
  O  O230  1  0.50624608  0.37642824  0.66617923  1
  O  O231  1  0.49644258  0.37433495  0.91185124  1
  O  O232  1  0.49557144  0.62228481  0.16253831  1
  O  O233  1  0.49942551  0.62032188  0.42085514  1
  O  O234  1  0.49689809  0.62438240  0.66364526  1
  O  O235  1  0.50682518  0.63289522  0.91251438  1
  O  O236  1  0.49686805  0.87197305  0.17138583  1
  O  O237  1  0.50798029  0.87062906  0.41703163  1
  O  O238  1  0.50370865  0.87324989  0.65817710  1
  O  O239  1  0.49678007  0.87621963  0.91225415  1
  O  O240  1  0.74927234  0.12476235  0.15607784  1
  O  O241  1  0.74997135  0.12780015  0.41515806  1
  O  O242  1  0.75727571  0.12739202  0.66684201  1
  O  O243  1  0.74617901  0.11759657  0.90857588  1
  O  O244  1  0.75007016  0.38063518  0.15808678  1
  O  O245  1  0.74756719  0.37906838  0.41298378  1
  O  O246  1  0.75133870  0.37644089  0.67098834  1
  O  O247  1  0.74719603  0.37491055  0.91031276  1
  O  O248  1  0.74692084  0.62513901  0.15784798  1
  O  O249  1  0.74767107  0.62146707  0.41801383  1
  O  O250  1  0.75441786  0.62382948  0.66455571  1
  O  O251  1  0.73904246  0.63421119  0.91291479  1
  O  O252  1  0.74764585  0.87063551  0.16556683  1
  O  O253  1  0.74295039  0.87053646  0.41231550  1
  O  O254  1  0.74312499  0.87364590  0.66228175  1
  O  O255  1  0.74136415  0.87506292  0.90327840  1
  O  O256  1  0.13196459  0.11960630  0.04924112  1
  O  O257  1  0.13419831  0.12727551  0.29152087  1
  O  O258  1  0.12382028  0.13348956  0.53211131  1
  O  O259  1  0.13233839  0.11337151  0.79574025  1
  O  O260  1  0.12897562  0.36837130  0.03010987  1
  O  O261  1  0.12518714  0.38241036  0.29784284  1
  O  O262  1  0.12259445  0.38359486  0.54783547  1
  O  O263  1  0.12171736  0.36892348  0.77656557  1
  O  O264  1  0.13600586  0.62832020  0.02812247  1
  O  O265  1  0.12638939  0.62397854  0.30150651  1
  O  O266  1  0.12165102  0.62305440  0.55559522  1
  O  O267  1  0.13065888  0.63661363  0.78227050  1
  O  O268  1  0.12765004  0.87697355  0.04985881  1
  O  O269  1  0.12770912  0.86799436  0.29950575  1
  O  O270  1  0.12303580  0.87180404  0.54567800  1
  O  O271  1  0.13031405  0.88389006  0.79428951  1
  O  O272  1  0.37002284  0.12379756  0.05025987  1
  O  O273  1  0.36903821  0.13369137  0.28678849  1
  O  O274  1  0.37849369  0.13055248  0.54507630  1
  O  O275  1  0.36852512  0.11609747  0.79544040  1
  O  O276  1  0.37407673  0.37086956  0.04525343  1
  O  O277  1  0.37508580  0.37721170  0.30041962  1
  O  O278  1  0.37782020  0.37387298  0.55905375  1
  O  O279  1  0.38687120  0.37133748  0.77431746  1
  O  O280  1  0.37539861  0.62599735  0.04541751  1
  O  O281  1  0.37349915  0.61873252  0.30287271  1
  O  O282  1  0.37522229  0.61962045  0.55358651  1
  O  O283  1  0.37466096  0.63565364  0.78016334  1
  O  O284  1  0.37395951  0.87330784  0.04056145  1
  O  O285  1  0.37151267  0.86137525  0.29642868  1
  O  O286  1  0.37266411  0.86850349  0.52850769  1
  O  O287  1  0.37431022  0.88029970  0.79817956  1
  O  O288  1  0.61477141  0.12017424  0.03357567  1
  O  O289  1  0.61835391  0.13017924  0.28381584  1
  O  O290  1  0.62554960  0.13423164  0.54454294  1
  O  O291  1  0.62190329  0.11525767  0.77651909  1
  O  O292  1  0.61478410  0.37817033  0.02978180  1
  O  O293  1  0.62406140  0.38210659  0.29832758  1
  O  O294  1  0.62926549  0.37615547  0.55569213  1
  O  O295  1  0.62203280  0.37655565  0.78502300  1
  O  O296  1  0.62338749  0.62651140  0.04630930  1
  O  O297  1  0.62379420  0.62266833  0.30393244  1
  O  O298  1  0.62408039  0.61815609  0.53662134  1
  O  O299  1  0.62395410  0.63277973  0.79463273  1
  O  O300  1  0.61592587  0.87527532  0.03639484  1
  O  O301  1  0.61990255  0.86925565  0.29727061  1
  O  O302  1  0.62794672  0.87313020  0.54466612  1
  O  O303  1  0.61759635  0.87418553  0.79508148  1
  O  O304  1  0.87600141  0.11452916  0.02744759  1
  O  O305  1  0.88231902  0.12874799  0.28309438  1
  O  O306  1  0.87139139  0.13006856  0.54894734  1
  O  O307  1  0.87702669  0.11098193  0.78772142  1
  O  O308  1  0.87833834  0.37487878  0.02528204  1
  O  O309  1  0.87446385  0.38024752  0.29822962  1
  O  O310  1  0.87146912  0.37331966  0.55724626  1
  O  O311  1  0.87054991  0.37672337  0.78384834  1
  O  O312  1  0.87389660  0.63211220  0.04215591  1
  O  O313  1  0.87726057  0.62788451  0.28821709  1
  O  O314  1  0.87652383  0.62074880  0.55467482  1
  O  O315  1  0.87195610  0.63037607  0.78240471  1
  O  O316  1  0.88000612  0.87061818  0.03949922  1
  O  O317  1  0.88042104  0.86042689  0.28389114  1
  O  O318  1  0.87586164  0.86991462  0.54200315  1
  O  O319  1  0.87602399  0.87868626  0.77525654  1
