# generated using pymatgen
data_VFe(PbO3)2
_symmetry_space_group_name_H-M   'P 1'
_cell_length_a   15.37128009
_cell_length_b   15.38354655
_cell_length_c   18.54809053
_cell_angle_alpha   90.00852721
_cell_angle_beta   90.00820652
_cell_angle_gamma   89.99198227
_symmetry_Int_Tables_number   1
_chemical_formula_structural   VFe(PbO3)2
_chemical_formula_sum   'V32 Fe32 Pb64 O192'
_cell_volume   4385.97043254
_cell_formula_units_Z   32
loop_
 _symmetry_equiv_pos_site_id
 _symmetry_equiv_pos_as_xyz
  1  'x, y, z'
loop_
 _atom_site_type_symbol
 _atom_site_label
 _atom_site_symmetry_multiplicity
 _atom_site_fract_x
 _atom_site_fract_y
 _atom_site_fract_z
 _atom_site_occupancy
  V  V0  1  0.37375264  0.62370854  0.88870537  1
  V  V1  1  0.87804535  0.62264314  0.64379672  1
  V  V2  1  0.62534422  0.62434385  0.64369649  1
  V  V3  1  0.87591803  0.87128098  0.64095932  1
  V  V4  1  0.62667860  0.12791538  0.88661638  1
  V  V5  1  0.12390308  0.87259389  0.63741773  1
  V  V6  1  0.12175234  0.37787576  0.63631610  1
  V  V7  1  0.62471371  0.12707795  0.13984576  1
  V  V8  1  0.37546617  0.12249834  0.39237023  1
  V  V9  1  0.12979500  0.12739100  0.14468394  1
  V  V10  1  0.12458829  0.62191026  0.89440199  1
  V  V11  1  0.12767630  0.37188834  0.38295366  1
  V  V12  1  0.12302738  0.12451403  0.88781023  1
  V  V13  1  0.62415922  0.37700128  0.14268824  1
  V  V14  1  0.62856884  0.37579334  0.63599279  1
  V  V15  1  0.12442572  0.12249368  0.63688493  1
  V  V16  1  0.37348090  0.37112025  0.13960138  1
  V  V17  1  0.12588440  0.87485198  0.89329618  1
  V  V18  1  0.37883557  0.87222064  0.38695090  1
  V  V19  1  0.62847034  0.87221537  0.64605953  1
  V  V20  1  0.62030340  0.37230300  0.89126094  1
  V  V21  1  0.87605312  0.12276318  0.14603650  1
  V  V22  1  0.62492338  0.62572970  0.38357160  1
  V  V23  1  0.37908075  0.63807689  0.14166749  1
  V  V24  1  0.87429814  0.37577877  0.89400126  1
  V  V25  1  0.37242620  0.12874421  0.88814082  1
  V  V26  1  0.62504403  0.87653620  0.13497891  1
  V  V27  1  0.62571094  0.12318329  0.39155745  1
  V  V28  1  0.12535587  0.87650324  0.13970253  1
  V  V29  1  0.87582207  0.12725748  0.88956560  1
  V  V30  1  0.37595664  0.87257930  0.64240349  1
  V  V31  1  0.87314174  0.87414386  0.38421656  1
  Fe  Fe32  1  0.37280291  0.87482155  0.89240864  1
  Fe  Fe33  1  0.62384244  0.37550943  0.38187313  1
  Fe  Fe34  1  0.87316200  0.62734803  0.37596087  1
  Fe  Fe35  1  0.87748088  0.87651110  0.89374306  1
  Fe  Fe36  1  0.87507823  0.12423581  0.63382829  1
  Fe  Fe37  1  0.12484691  0.62856320  0.63544862  1
  Fe  Fe38  1  0.37428867  0.62596884  0.63579516  1
  Fe  Fe39  1  0.87292041  0.37693495  0.63339006  1
  Fe  Fe40  1  0.62456489  0.12279097  0.63601292  1
  Fe  Fe41  1  0.12641254  0.12369506  0.38295203  1
  Fe  Fe42  1  0.12866625  0.62403639  0.13935105  1
  Fe  Fe43  1  0.37660662  0.37329812  0.39194854  1
  Fe  Fe44  1  0.62469850  0.62320020  0.89232233  1
  Fe  Fe45  1  0.37680176  0.62552454  0.37895744  1
  Fe  Fe46  1  0.12602059  0.87661556  0.38308998  1
  Fe  Fe47  1  0.62405224  0.87804449  0.88310152  1
  Fe  Fe48  1  0.37431268  0.12369451  0.63575557  1
  Fe  Fe49  1  0.87362158  0.37537720  0.37688586  1
  Fe  Fe50  1  0.87466016  0.37228901  0.14395935  1
  Fe  Fe51  1  0.37210363  0.37705139  0.88479941  1
  Fe  Fe52  1  0.87612716  0.87995313  0.13025352  1
  Fe  Fe53  1  0.87256480  0.62715073  0.13244083  1
  Fe  Fe54  1  0.87658183  0.62458502  0.89582719  1
  Fe  Fe55  1  0.87440877  0.12210883  0.38311988  1
  Fe  Fe56  1  0.12312065  0.37312692  0.89203034  1
  Fe  Fe57  1  0.37427173  0.88316370  0.13050020  1
  Fe  Fe58  1  0.37878727  0.12529501  0.13602547  1
  Fe  Fe59  1  0.62350957  0.87472508  0.38623385  1
  Fe  Fe60  1  0.12560132  0.37330216  0.13485892  1
  Fe  Fe61  1  0.62043702  0.62431669  0.12926382  1
  Fe  Fe62  1  0.37519201  0.37600144  0.63154983  1
  Fe  Fe63  1  0.12604260  0.62616054  0.37611389  1
  Pb  Pb64  1  -0.00150277  -0.00026326  0.00351821  1
  Pb  Pb65  1  0.00491004  0.00372218  0.25508102  1
  Pb  Pb66  1  -0.00252582  0.00296566  0.49369250  1
  Pb  Pb67  1  -0.00529007  -0.00738474  0.74937622  1
  Pb  Pb68  1  -0.00097434  0.25974418  0.00859305  1
  Pb  Pb69  1  -0.00556525  0.25089501  0.25279760  1
  Pb  Pb70  1  -0.00700806  0.24806282  0.49166340  1
  Pb  Pb71  1  0.00447669  0.25396614  0.74619412  1
  Pb  Pb72  1  -0.00952431  0.49757150  0.01238277  1
  Pb  Pb73  1  -0.00189986  0.50269932  0.23936559  1
  Pb  Pb74  1  -0.00142605  0.50071573  0.48598753  1
  Pb  Pb75  1  0.00588426  0.49487892  0.75359994  1
  Pb  Pb76  1  -0.00299557  0.74235301  0.00765735  1
  Pb  Pb77  1  -0.00238598  0.74339395  0.24292362  1
  Pb  Pb78  1  0.00794821  0.74179083  0.49102506  1
  Pb  Pb79  1  -0.01242461  0.74974040  0.75911695  1
  Pb  Pb80  1  0.25848699  0.00436227  0.00322202  1
  Pb  Pb81  1  0.24494659  -0.00041406  0.25220614  1
  Pb  Pb82  1  0.25237636  0.00019926  0.49796080  1
  Pb  Pb83  1  0.25393868  -0.00553104  0.75068547  1
  Pb  Pb84  1  0.24509789  0.25542658  -0.00031562  1
  Pb  Pb85  1  0.25672256  0.25489228  0.25400152  1
  Pb  Pb86  1  0.25702827  0.25168738  0.50209854  1
  Pb  Pb87  1  0.25035432  0.25831773  0.74736402  1
  Pb  Pb88  1  0.24063105  0.49901507  0.00471553  1
  Pb  Pb89  1  0.25395625  0.50770851  0.25106258  1
  Pb  Pb90  1  0.25340071  0.50567400  0.49317702  1
  Pb  Pb91  1  0.25357895  0.49653351  0.74635836  1
  Pb  Pb92  1  0.24553076  0.74577485  0.00522708  1
  Pb  Pb93  1  0.24046861  0.75502091  0.25433191  1
  Pb  Pb94  1  0.24635567  0.73610699  0.49726774  1
  Pb  Pb95  1  0.25163275  0.75025582  0.74973284  1
  Pb  Pb96  1  0.49400452  0.00095651  -0.00145010  1
  Pb  Pb97  1  0.50214327  -0.00263447  0.24879969  1
  Pb  Pb98  1  0.50230123  0.00771862  0.50649618  1
  Pb  Pb99  1  0.49930454  -0.00798587  0.75413713  1
  Pb  Pb100  1  0.49281480  0.24346831  0.00079678  1
  Pb  Pb101  1  0.50073379  0.25985023  0.25785845  1
  Pb  Pb102  1  0.49956887  0.24933208  0.50231004  1
  Pb  Pb103  1  0.49293752  0.25094489  0.74265764  1
  Pb  Pb104  1  0.49960520  0.50507871  0.00253917  1
  Pb  Pb105  1  0.49168466  0.49660395  0.25388185  1
  Pb  Pb106  1  0.49312564  0.49904060  0.49527167  1
  Pb  Pb107  1  0.49826203  0.50003031  0.74653016  1
  Pb  Pb108  1  0.50460960  0.75424995  -0.00548781  1
  Pb  Pb109  1  0.50761228  0.75797119  0.24958641  1
  Pb  Pb110  1  0.49540059  0.74311574  0.50022297  1
  Pb  Pb111  1  0.50776185  0.75150752  0.75753599  1
  Pb  Pb112  1  0.75163161  -0.00485333  -0.00212489  1
  Pb  Pb113  1  0.75087560  0.00201806  0.25181525  1
  Pb  Pb114  1  0.74972690  0.00762364  0.50344917  1
  Pb  Pb115  1  0.75126821  -0.00731126  0.75079168  1
  Pb  Pb116  1  0.75664167  0.25647539  0.00548644  1
  Pb  Pb117  1  0.75030780  0.25403764  0.25614076  1
  Pb  Pb118  1  0.75907586  0.25075462  0.49595784  1
  Pb  Pb119  1  0.75383198  0.24658935  0.74252033  1
  Pb  Pb120  1  0.75116838  0.50731562  0.00585031  1
  Pb  Pb121  1  0.75721731  0.50460587  0.24521091  1
  Pb  Pb122  1  0.75739793  0.49229481  0.49161951  1
  Pb  Pb123  1  0.74869196  0.50960048  0.75780037  1
  Pb  Pb124  1  0.75273482  0.74879909  -0.00558111  1
  Pb  Pb125  1  0.75463239  0.74737577  0.24003199  1
  Pb  Pb126  1  0.74980250  0.75029397  0.49413744  1
  Pb  Pb127  1  0.75270352  0.73941984  0.76465932  1
  O  O128  1  0.12447177  0.00284511  0.16546495  1
  O  O129  1  0.12793838  -0.00126970  0.41708690  1
  O  O130  1  0.12511116  -0.00533586  0.66478859  1
  O  O131  1  0.12539438  0.00248876  0.91683600  1
  O  O132  1  0.12290384  0.24262133  0.16598094  1
  O  O133  1  0.12669273  0.25311968  0.41129471  1
  O  O134  1  0.12154715  0.25294701  0.66002741  1
  O  O135  1  0.12336763  0.24253714  0.91643628  1
  O  O136  1  0.13125137  0.49776135  0.16035318  1
  O  O137  1  0.12707061  0.49270516  0.40371171  1
  O  O138  1  0.12152721  0.49618766  0.66190049  1
  O  O139  1  0.12579432  0.50577757  0.91503731  1
  O  O140  1  0.12986690  0.75845160  0.16000816  1
  O  O141  1  0.12657464  0.75309345  0.41015860  1
  O  O142  1  0.12386841  0.75597231  0.66764047  1
  O  O143  1  0.12724008  0.75339106  0.91614772  1
  O  O144  1  0.37687718  0.00311605  0.16694265  1
  O  O145  1  0.37897976  0.00174243  0.41420657  1
  O  O146  1  0.37361805  -0.00762583  0.66623773  1
  O  O147  1  0.37418957  0.01064308  0.91248624  1
  O  O148  1  0.37848818  0.25150300  0.16690646  1
  O  O149  1  0.37684343  0.24121748  0.41582273  1
  O  O150  1  0.37259234  0.25141409  0.66315675  1
  O  O151  1  0.37454363  0.24630701  0.91319180  1
  O  O152  1  0.37904844  0.48641178  0.16334896  1
  O  O153  1  0.37683728  0.50114503  0.41104710  1
  O  O154  1  0.37451996  0.49967282  0.66336737  1
  O  O155  1  0.37000599  0.50670077  0.91578927  1
  O  O156  1  0.38009476  0.75330385  0.15319382  1
  O  O157  1  0.37943361  0.75565340  0.40683422  1
  O  O158  1  0.37569760  0.75591819  0.66795239  1
  O  O159  1  0.37178484  0.74154942  0.91390139  1
  O  O160  1  0.62561691  0.00290532  0.16273080  1
  O  O161  1  0.62216666  0.00299282  0.41634091  1
  O  O162  1  0.62453862  -0.00962141  0.66529490  1
  O  O163  1  0.62504396  0.01043078  0.91111282  1
  O  O164  1  0.62695721  0.24464423  0.16482462  1
  O  O165  1  0.62378300  0.24040023  0.41216802  1
  O  O166  1  0.62695235  0.25818127  0.65757207  1
  O  O167  1  0.62736125  0.25307125  0.91965656  1
  O  O168  1  0.61934013  0.49277657  0.15913515  1
  O  O169  1  0.62320876  0.50888988  0.40622397  1
  O  O170  1  0.62699005  0.49914072  0.66727355  1
  O  O171  1  0.62625802  0.48742948  0.91631635  1
  O  O172  1  0.61937033  0.75748094  0.15320590  1
  O  O173  1  0.62364084  0.74574062  0.41526274  1
  O  O174  1  0.62397306  0.75175816  0.67061689  1
  O  O175  1  0.62322561  0.75094392  0.91246702  1
  O  O176  1  0.87277305  0.00348476  0.16746891  1
  O  O177  1  0.87138929  -0.00812580  0.41125748  1
  O  O178  1  0.87384760  -0.00633217  0.66568258  1
  O  O179  1  0.87623695  0.01092102  0.91361748  1
  O  O180  1  0.87133906  0.24027584  0.16678462  1
  O  O181  1  0.87372402  0.24959311  0.40784342  1
  O  O182  1  0.87500214  0.25152862  0.66256820  1
  O  O183  1  0.87503317  0.24889965  0.91798884  1
  O  O184  1  0.87185583  0.50001870  0.15881317  1
  O  O185  1  0.87455680  0.50142662  0.40489406  1
  O  O186  1  0.87339545  0.50651087  0.66567031  1
  O  O187  1  0.87696651  0.49181413  0.91664701  1
  O  O188  1  0.87291222  0.75585848  0.15503545  1
  O  O189  1  0.87204666  0.75518295  0.41004736  1
  O  O190  1  0.87358570  0.74707656  0.67123941  1
  O  O191  1  0.87901084  0.75142974  0.91769976  1
  O  O192  1  -0.00277302  0.12233788  0.16507068  1
  O  O193  1  0.00039712  0.12169080  0.41192423  1
  O  O194  1  0.00471345  0.12204326  0.66351268  1
  O  O195  1  -0.00447498  0.12678313  0.91448982  1
  O  O196  1  0.00181936  0.37038974  0.16482870  1
  O  O197  1  0.00708901  0.37333084  0.40470951  1
  O  O198  1  0.00246030  0.37718960  0.66458097  1
  O  O199  1  -0.00707311  0.37167599  0.91896877  1
  O  O200  1  0.00095427  0.62804452  0.15718576  1
  O  O201  1  -0.00011870  0.62672825  0.40426387  1
  O  O202  1  -0.00561030  0.62703652  0.66526922  1
  O  O203  1  0.00893198  0.62662996  0.91753641  1
  O  O204  1  0.00645418  0.87973423  0.16079643  1
  O  O205  1  -0.00827764  0.87551274  0.40647378  1
  O  O206  1  -0.00089656  0.87356951  0.66700351  1
  O  O207  1  0.01044214  0.87906843  0.91981840  1
  O  O208  1  0.24624646  0.12523916  0.16154574  1
  O  O209  1  0.25685567  0.12251803  0.41313854  1
  O  O210  1  0.24364125  0.12370667  0.66549863  1
  O  O211  1  0.25183228  0.12681683  0.91061845  1
  O  O212  1  0.25656705  0.36652960  0.16055778  1
  O  O213  1  0.24448616  0.37166759  0.41337077  1
  O  O214  1  0.24068850  0.37462922  0.65884291  1
  O  O215  1  0.24951606  0.37369514  0.91749075  1
  O  O216  1  0.26349717  0.62338331  0.16265173  1
  O  O217  1  0.25081684  0.62643372  0.40790304  1
  O  O218  1  0.24859459  0.62765727  0.66709313  1
  O  O219  1  0.24835083  0.62667919  0.91767232  1
  O  O220  1  0.24592057  0.88091726  0.16136027  1
  O  O221  1  0.26312310  0.87912029  0.41071884  1
  O  O222  1  0.25181948  0.87394439  0.66428317  1
  O  O223  1  0.24255788  0.87890079  0.91872728  1
  O  O224  1  0.50910128  0.12509648  0.16376371  1
  O  O225  1  0.49971235  0.12259725  0.41637261  1
  O  O226  1  0.49995765  0.12305870  0.66719417  1
  O  O227  1  0.49816253  0.13040936  0.91025931  1
  O  O228  1  0.50115049  0.36719807  0.16513869  1
  O  O229  1  0.50334289  0.37212546  0.41814162  1
  O  O230  1  0.50848982  0.37778461  0.65883916  1
  O  O231  1  0.50326693  0.37213564  0.91170318  1
  O  O232  1  0.49499267  0.62096668  0.16472539  1
  O  O233  1  0.50568251  0.62819642  0.41139538  1
  O  O234  1  0.50370195  0.62650709  0.66756474  1
  O  O235  1  0.49184175  0.62112516  0.91144937  1
  O  O236  1  0.50584872  0.88107398  0.16071028  1
  O  O237  1  0.49425386  0.87707600  0.41842140  1
  O  O238  1  0.49808767  0.87327492  0.66545585  1
  O  O239  1  0.49887185  0.87890187  0.91399947  1
  O  O240  1  0.74679240  0.12216107  0.16678461  1
  O  O241  1  0.74417666  0.12017705  0.41166396  1
  O  O242  1  0.74924581  0.12188927  0.66764886  1
  O  O243  1  0.75471302  0.13005780  0.91403908  1
  O  O244  1  0.74121686  0.36992038  0.16264197  1
  O  O245  1  0.74742879  0.37501519  0.41010944  1
  O  O246  1  0.74477224  0.37929321  0.66493956  1
  O  O247  1  0.75292422  0.37127594  0.91704239  1
  O  O248  1  0.74332478  0.62573542  0.15585140  1
  O  O249  1  0.74372522  0.62824711  0.40780480  1
  O  O250  1  0.75208914  0.62727626  0.67232809  1
  O  O251  1  0.74973983  0.62017584  0.91788513  1
  O  O252  1  0.74204954  0.88035323  0.15723796  1
  O  O253  1  0.75266565  0.87390788  0.41381923  1
  O  O254  1  0.74776107  0.87180110  0.66584840  1
  O  O255  1  0.74918186  0.88050543  0.91256458  1
  O  O256  1  0.12396731  0.12524928  0.05373332  1
  O  O257  1  0.12635013  0.11633095  0.28319724  1
  O  O258  1  0.12570928  0.12164803  0.54596179  1
  O  O259  1  0.12280927  0.12422686  0.79720321  1
  O  O260  1  0.12507590  0.36776695  0.03353008  1
  O  O261  1  0.13315322  0.36696302  0.29204001  1
  O  O262  1  0.11950724  0.37754116  0.54615059  1
  O  O263  1  0.11539459  0.37609959  0.79208039  1
  O  O264  1  0.13459666  0.63078427  0.03823521  1
  O  O265  1  0.13309367  0.63296237  0.27502852  1
  O  O266  1  0.12561896  0.63254898  0.53578246  1
  O  O267  1  0.12562838  0.62511385  0.80358418  1
  O  O268  1  0.12549381  0.87988953  0.04866894  1
  O  O269  1  0.13439616  0.87780106  0.28313271  1
  O  O270  1  0.12380134  0.87220117  0.54663959  1
  O  O271  1  0.12500548  0.87531929  0.80256650  1
  O  O272  1  0.38046236  0.12535941  0.03608274  1
  O  O273  1  0.37788985  0.12364388  0.30142511  1
  O  O274  1  0.37600461  0.12161483  0.53627281  1
  O  O275  1  0.37279834  0.12836005  0.79716287  1
  O  O276  1  0.37696456  0.37008613  0.04821221  1
  O  O277  1  0.37834404  0.36697162  0.29077146  1
  O  O278  1  0.37228297  0.37095334  0.53093820  1
  O  O279  1  0.36960352  0.37440047  0.78535866  1
  O  O280  1  0.37990326  0.62276527  0.05083136  1
  O  O281  1  0.37694902  0.62015849  0.27884531  1
  O  O282  1  0.37596692  0.63147864  0.53578856  1
  O  O283  1  0.37073852  0.62296111  0.79778912  1
  O  O284  1  0.37330874  0.88885527  0.03016041  1
  O  O285  1  0.38315370  0.87593163  0.29551583  1
  O  O286  1  0.37599068  0.87204926  0.55200095  1
  O  O287  1  0.36948555  0.87977055  0.79230823  1
  O  O288  1  0.62620429  0.12739649  0.04903821  1
  O  O289  1  0.62281986  0.12036806  0.30032170  1
  O  O290  1  0.62488365  0.11594857  0.53646909  1
  O  O291  1  0.62760842  0.13136439  0.79602707  1
  O  O292  1  0.62154376  0.37116736  0.05170438  1
  O  O293  1  0.61958633  0.36861409  0.28185656  1
  O  O294  1  0.63144316  0.38088023  0.54536612  1
  O  O295  1  0.62513347  0.37114940  0.80097061  1
  O  O296  1  0.61444206  0.61654970  0.02916257  1
  O  O297  1  0.62180244  0.63078013  0.29251425  1
  O  O298  1  0.62823503  0.62567145  0.55327882  1
  O  O299  1  0.63081994  0.62165873  0.79081983  1
  O  O300  1  0.62342024  0.88223839  0.04387696  1
  O  O301  1  0.61666426  0.87113894  0.28720448  1
  O  O302  1  0.62586160  0.86895993  0.55536390  1
  O  O303  1  0.61857241  0.87695266  0.78258986  1
  O  O304  1  0.87411696  0.12329156  0.05503658  1
  O  O305  1  0.87186724  0.11936501  0.28343681  1
  O  O306  1  0.87046923  0.12087766  0.53379770  1
  O  O307  1  0.87514043  0.12904848  0.79894568  1
  O  O308  1  0.87694559  0.36694004  0.04183652  1
  O  O309  1  0.87008905  0.37056356  0.27549281  1
  O  O310  1  0.87156308  0.37946358  0.53418807  1
  O  O311  1  0.87520851  0.37447234  0.80319697  1
  O  O312  1  0.87965038  0.62006216  0.02927088  1
  O  O313  1  0.86813628  0.63112101  0.27591950  1
  O  O314  1  0.87388979  0.62611884  0.55324874  1
  O  O315  1  0.87353511  0.62799646  0.79422029  1
  O  O316  1  0.87749360  0.89053045  0.03032437  1
  O  O317  1  0.86934211  0.87440321  0.29307012  1
  O  O318  1  0.87583449  0.86871021  0.55040817  1
  O  O319  1  0.88515630  0.87626704  0.79259984  1
