# generated using pymatgen
data_VFe(PbO3)2
_symmetry_space_group_name_H-M   'P 1'
_cell_length_a   15.38343442
_cell_length_b   15.38245576
_cell_length_c   18.53934405
_cell_angle_alpha   89.94483562
_cell_angle_beta   89.98719524
_cell_angle_gamma   89.99171846
_symmetry_Int_Tables_number   1
_chemical_formula_structural   VFe(PbO3)2
_chemical_formula_sum   'V32 Fe32 Pb64 O192'
_cell_volume   4387.05548035
_cell_formula_units_Z   32
loop_
 _symmetry_equiv_pos_site_id
 _symmetry_equiv_pos_as_xyz
  1  'x, y, z'
loop_
 _atom_site_type_symbol
 _atom_site_label
 _atom_site_symmetry_multiplicity
 _atom_site_fract_x
 _atom_site_fract_y
 _atom_site_fract_z
 _atom_site_occupancy
  V  V0  1  0.12104648  0.62734765  0.38547567  1
  V  V1  1  0.12506079  0.37510944  0.89166494  1
  V  V2  1  0.87217973  0.62287053  0.63798368  1
  V  V3  1  0.37571421  0.37367374  0.14351291  1
  V  V4  1  0.12486136  0.12319079  0.38650005  1
  V  V5  1  0.87761691  0.62603569  0.14162195  1
  V  V6  1  0.87370413  0.12699983  0.64188748  1
  V  V7  1  0.37571933  0.37339756  0.63702280  1
  V  V8  1  0.37726211  0.12004152  0.63789238  1
  V  V9  1  0.62765063  0.87228000  0.13776470  1
  V  V10  1  0.37374487  0.86754630  0.63544938  1
  V  V11  1  0.37672336  0.87206054  0.14174701  1
  V  V12  1  0.87673905  0.12331471  0.38625090  1
  V  V13  1  0.87365761  0.37603085  0.63754693  1
  V  V14  1  0.37337556  0.11981884  0.14038354  1
  V  V15  1  0.37886253  0.12435054  0.38617896  1
  V  V16  1  0.87083417  0.37718972  0.89241979  1
  V  V17  1  0.12780595  0.87527033  0.89024203  1
  V  V18  1  0.87403449  0.37592261  0.13829203  1
  V  V19  1  0.12570193  0.37741152  0.14553158  1
  V  V20  1  0.12399250  0.62467907  0.63811023  1
  V  V21  1  0.87930728  0.62461533  0.88881627  1
  V  V22  1  0.12692510  0.62300871  0.14373541  1
  V  V23  1  0.37381080  0.37385564  0.88995769  1
  V  V24  1  0.37317373  0.12470006  0.88975427  1
  V  V25  1  0.37658194  0.87588138  0.88964081  1
  V  V26  1  0.62651800  0.37174920  0.38413014  1
  V  V27  1  0.37534791  0.62452590  0.14675912  1
  V  V28  1  0.12673898  0.12560852  0.89392638  1
  V  V29  1  0.37680629  0.61996112  0.63691320  1
  V  V30  1  0.62649519  0.37533130  0.64200629  1
  V  V31  1  0.87489876  0.87386653  0.38808125  1
  Fe  Fe32  1  0.37052419  0.62551724  0.88391563  1
  Fe  Fe33  1  0.12257631  0.37331401  0.38353227  1
  Fe  Fe34  1  0.12626040  0.62438454  0.88549376  1
  Fe  Fe35  1  0.62382887  0.87395242  0.88235854  1
  Fe  Fe36  1  0.87592416  0.87299100  0.12785978  1
  Fe  Fe37  1  0.62267232  0.37666139  0.89245900  1
  Fe  Fe38  1  0.62209713  0.12570258  0.88341785  1
  Fe  Fe39  1  0.87676001  0.12375023  0.12655449  1
  Fe  Fe40  1  0.62926443  0.12402597  0.37954656  1
  Fe  Fe41  1  0.62183401  0.12563608  0.14138775  1
  Fe  Fe42  1  0.62575197  0.87759629  0.38503198  1
  Fe  Fe43  1  0.62527302  0.12768777  0.64304503  1
  Fe  Fe44  1  0.62396804  0.37869976  0.13282004  1
  Fe  Fe45  1  0.87684119  0.12848114  0.89493864  1
  Fe  Fe46  1  0.12418412  0.12783686  0.63628107  1
  Fe  Fe47  1  0.37361536  0.87674184  0.38372108  1
  Fe  Fe48  1  0.87685074  0.87461563  0.88632490  1
  Fe  Fe49  1  0.12277937  0.37413160  0.63358137  1
  Fe  Fe50  1  0.12318460  0.87612081  0.38191147  1
  Fe  Fe51  1  0.62411661  0.62384317  0.14518864  1
  Fe  Fe52  1  0.62490582  0.87571672  0.63802535  1
  Fe  Fe53  1  0.87337195  0.37171989  0.38238671  1
  Fe  Fe54  1  0.62502248  0.62427277  0.63719740  1
  Fe  Fe55  1  0.37568889  0.37164852  0.38556321  1
  Fe  Fe56  1  0.12662610  0.12732756  0.13461737  1
  Fe  Fe57  1  0.87590183  0.62491366  0.38297994  1
  Fe  Fe58  1  0.87774996  0.87447112  0.63973064  1
  Fe  Fe59  1  0.37394163  0.62378047  0.38241307  1
  Fe  Fe60  1  0.62776232  0.62581474  0.37868228  1
  Fe  Fe61  1  0.12639665  0.87300621  0.14064830  1
  Fe  Fe62  1  0.12576992  0.87654152  0.63594518  1
  Fe  Fe63  1  0.62169571  0.62428596  0.88374484  1
  Pb  Pb64  1  -0.00660991  -0.00159761  0.00162639  1
  Pb  Pb65  1  0.00144003  -0.00096852  0.23669544  1
  Pb  Pb66  1  -0.00182611  -0.00611420  0.50419451  1
  Pb  Pb67  1  -0.00677840  -0.00085845  0.75242108  1
  Pb  Pb68  1  0.00142906  0.24334470  0.00580692  1
  Pb  Pb69  1  -0.00166958  0.25630387  0.24799818  1
  Pb  Pb70  1  0.00614079  0.24973174  0.49905540  1
  Pb  Pb71  1  -0.00615065  0.24701478  0.75224004  1
  Pb  Pb72  1  0.00040283  0.50087845  0.00261553  1
  Pb  Pb73  1  -0.00684907  0.49491727  0.25684092  1
  Pb  Pb74  1  -0.00100140  0.49338290  0.49282039  1
  Pb  Pb75  1  0.00335463  0.50352458  0.74682497  1
  Pb  Pb76  1  0.00485926  0.76097581  0.00444387  1
  Pb  Pb77  1  0.00045277  0.75345292  0.24954235  1
  Pb  Pb78  1  -0.00256730  0.76184534  0.50277856  1
  Pb  Pb79  1  -0.00168468  0.75462464  0.74920411  1
  Pb  Pb80  1  0.24082507  -0.00155070  0.00645434  1
  Pb  Pb81  1  0.24636424  -0.00821097  0.25049115  1
  Pb  Pb82  1  0.24080350  0.00037365  0.49780041  1
  Pb  Pb83  1  0.24702294  -0.00010579  0.74635631  1
  Pb  Pb84  1  0.24753162  0.24546166  0.00484868  1
  Pb  Pb85  1  0.24917926  0.25990188  0.25471237  1
  Pb  Pb86  1  0.24124055  0.24959987  0.49966144  1
  Pb  Pb87  1  0.24915210  0.25377572  0.74593229  1
  Pb  Pb88  1  0.25295127  0.50254252  0.00001761  1
  Pb  Pb89  1  0.25756446  0.49937060  0.25964503  1
  Pb  Pb90  1  0.24623662  0.49308878  0.49255187  1
  Pb  Pb91  1  0.25071529  0.50825249  0.75066927  1
  Pb  Pb92  1  0.24693923  0.75398345  0.00179509  1
  Pb  Pb93  1  0.25611224  0.75282112  0.25594762  1
  Pb  Pb94  1  0.24854151  0.75449051  0.49188763  1
  Pb  Pb95  1  0.25091286  0.73927325  0.75072320  1
  Pb  Pb96  1  0.50705842  0.00339608  -0.00145251  1
  Pb  Pb97  1  0.50485283  -0.01002229  0.25572454  1
  Pb  Pb98  1  0.51274753  -0.00635132  0.49944689  1
  Pb  Pb99  1  0.51147394  -0.00058322  0.75135565  1
  Pb  Pb100  1  0.50906056  0.24894676  0.00342590  1
  Pb  Pb101  1  0.50195857  0.25071875  0.24932899  1
  Pb  Pb102  1  0.50719269  0.24121874  0.49899438  1
  Pb  Pb103  1  0.50805600  0.25332182  0.75503659  1
  Pb  Pb104  1  0.50895631  0.50468605  0.00432958  1
  Pb  Pb105  1  0.49848552  0.50372946  0.25362017  1
  Pb  Pb106  1  0.50217281  0.50520562  0.49140420  1
  Pb  Pb107  1  0.50572730  0.49975046  0.75481604  1
  Pb  Pb108  1  0.50742169  0.73982779  -0.00129023  1
  Pb  Pb109  1  0.50513579  0.75685520  0.25877386  1
  Pb  Pb110  1  0.50429326  0.74886862  0.49055824  1
  Pb  Pb111  1  0.50941611  0.74585784  0.74969240  1
  Pb  Pb112  1  0.75306019  0.00082815  -0.00942289  1
  Pb  Pb113  1  0.74912717  0.00275464  0.24031943  1
  Pb  Pb114  1  0.74631134  -0.00600430  0.50213466  1
  Pb  Pb115  1  0.75022213  -0.00603478  0.75155722  1
  Pb  Pb116  1  0.73935976  0.23551234  0.00380813  1
  Pb  Pb117  1  0.74524082  0.24465719  0.24303139  1
  Pb  Pb118  1  0.74607149  0.24019850  0.49885013  1
  Pb  Pb119  1  0.75240539  0.24000684  0.76038753  1
  Pb  Pb120  1  0.73771039  0.50415661  0.00544512  1
  Pb  Pb121  1  0.75194129  0.50335047  0.25037665  1
  Pb  Pb122  1  0.74774976  0.50599442  0.49352964  1
  Pb  Pb123  1  0.73898319  0.49843203  0.75496797  1
  Pb  Pb124  1  0.75059122  0.75238384  -0.00639377  1
  Pb  Pb125  1  0.75002779  0.74213780  0.25213440  1
  Pb  Pb126  1  0.73733171  0.74658547  0.49970648  1
  Pb  Pb127  1  0.74671748  0.75821778  0.74845525  1
  O  O128  1  0.13071871  0.00154283  0.16127811  1
  O  O129  1  0.12201375  0.00635348  0.41114006  1
  O  O130  1  0.12756233  0.00396532  0.66796296  1
  O  O131  1  0.12842079  -0.00234823  0.91624777  1
  O  O132  1  0.12781251  0.25602627  0.16452030  1
  O  O133  1  0.12177167  0.24135185  0.41133701  1
  O  O134  1  0.12630232  0.25164717  0.66893129  1
  O  O135  1  0.12910730  0.25406612  0.91752563  1
  O  O136  1  0.12447371  0.50391237  0.17088053  1
  O  O137  1  0.12150180  0.50503454  0.40849321  1
  O  O138  1  0.12558876  0.50139223  0.66293164  1
  O  O139  1  0.12823960  0.49315837  0.91530843  1
  O  O140  1  0.12706382  0.73925422  0.16664010  1
  O  O141  1  0.12198671  0.74643677  0.40961480  1
  O  O142  1  0.12650232  0.74546673  0.66290848  1
  O  O143  1  0.12945057  0.75611267  0.91133765  1
  O  O144  1  0.37421443  0.00242964  0.15977366  1
  O  O145  1  0.36999455  0.01053269  0.41353208  1
  O  O146  1  0.37343779  0.00451236  0.65726179  1
  O  O147  1  0.37160603  -0.00252063  0.91696247  1
  O  O148  1  0.37331714  0.25546431  0.16235385  1
  O  O149  1  0.37254059  0.24066414  0.41415259  1
  O  O150  1  0.37922092  0.25632352  0.66381050  1
  O  O151  1  0.36874091  0.25200563  0.91546150  1
  O  O152  1  0.37131955  0.50048822  0.16802596  1
  O  O153  1  0.37431795  0.49780876  0.41453734  1
  O  O154  1  0.37603498  0.49387836  0.66150086  1
  O  O155  1  0.36636052  0.49135338  0.91160536  1
  O  O156  1  0.37223352  0.74459931  0.16568977  1
  O  O157  1  0.37134013  0.74889697  0.41164715  1
  O  O158  1  0.37138320  0.75071227  0.65621305  1
  O  O159  1  0.36897024  0.75927965  0.91237785  1
  O  O160  1  0.61965315  -0.00782955  0.16019896  1
  O  O161  1  0.62775474  0.00292523  0.41414003  1
  O  O162  1  0.62239904  0.00189990  0.66545159  1
  O  O163  1  0.62077964  -0.00060698  0.91175691  1
  O  O164  1  0.62255435  0.25503002  0.16385105  1
  O  O165  1  0.62609264  0.25008911  0.41205598  1
  O  O166  1  0.62351399  0.25864737  0.66804040  1
  O  O167  1  0.62075083  0.25120217  0.91500991  1
  O  O168  1  0.62416366  0.49869390  0.16833369  1
  O  O169  1  0.62674832  0.49136125  0.40462916  1
  O  O170  1  0.62382197  0.49504567  0.66622696  1
  O  O171  1  0.62370540  0.50266889  0.91887422  1
  O  O172  1  0.62109847  0.75555610  0.16367790  1
  O  O173  1  0.62783436  0.75172014  0.40971126  1
  O  O174  1  0.62271261  0.74912036  0.66414669  1
  O  O175  1  0.62382996  0.74817635  0.91415948  1
  O  O176  1  0.87460394  -0.00241226  0.15419632  1
  O  O177  1  0.87757124  0.00342840  0.41428788  1
  O  O178  1  0.87534720  0.00938416  0.66393775  1
  O  O179  1  0.88041856  0.00007028  0.91202645  1
  O  O180  1  0.87719209  0.25904518  0.15413141  1
  O  O181  1  0.87597197  0.24037805  0.41094668  1
  O  O182  1  0.87228654  0.25214550  0.66790547  1
  O  O183  1  0.88046393  0.26393796  0.91822858  1
  O  O184  1  0.87923112  0.50214891  0.16593070  1
  O  O185  1  0.87528903  0.49819226  0.41196033  1
  O  O186  1  0.87491385  0.50181431  0.66477238  1
  O  O187  1  0.88343832  0.49698769  0.91899927  1
  O  O188  1  0.87689889  0.74397299  0.16092735  1
  O  O189  1  0.87731221  0.75814490  0.40935347  1
  O  O190  1  0.87805843  0.74018624  0.66286870  1
  O  O191  1  0.88019618  0.74073877  0.90940987  1
  O  O192  1  0.00038387  0.12813221  0.15798619  1
  O  O193  1  -0.00119016  0.12392233  0.41011935  1
  O  O194  1  -0.00726153  0.13052255  0.66485500  1
  O  O195  1  0.00799489  0.12955578  0.91648676  1
  O  O196  1  -0.00193711  0.37907539  0.16546446  1
  O  O197  1  -0.00158344  0.37080392  0.41446410  1
  O  O198  1  -0.00630510  0.37556292  0.66302256  1
  O  O199  1  0.00838537  0.37527789  0.91709310  1
  O  O200  1  0.00186284  0.62352524  0.16529056  1
  O  O201  1  0.00425918  0.62609337  0.41276802  1
  O  O202  1  -0.00266303  0.62136065  0.66386571  1
  O  O203  1  -0.00122507  0.62073626  0.91545298  1
  O  O204  1  -0.00024736  0.86999337  0.16162728  1
  O  O205  1  -0.00483152  0.87939494  0.41350480  1
  O  O206  1  0.00249426  0.87590902  0.67017553  1
  O  O207  1  0.01036194  0.87435471  0.91092164  1
  O  O208  1  0.25892889  0.12977873  0.16693777  1
  O  O209  1  0.24406605  0.12511082  0.40886529  1
  O  O210  1  0.26060357  0.13159270  0.66494705  1
  O  O211  1  0.25132738  0.12478584  0.92163510  1
  O  O212  1  0.25293027  0.37856228  0.16848304  1
  O  O213  1  0.24799231  0.37144380  0.41201103  1
  O  O214  1  0.25812190  0.37365030  0.65874243  1
  O  O215  1  0.24721565  0.37257419  0.91856815  1
  O  O216  1  0.24744966  0.62170909  0.16752732  1
  O  O217  1  0.23964508  0.62405863  0.41132656  1
  O  O218  1  0.25181530  0.62226476  0.66339991  1
  O  O219  1  0.24859040  0.62507050  0.92104190  1
  O  O220  1  0.25587088  0.87206592  0.16567739  1
  O  O221  1  0.24730890  0.87864069  0.41246306  1
  O  O222  1  0.25753370  0.87782875  0.66413921  1
  O  O223  1  0.24944809  0.87799080  0.91820382  1
  O  O224  1  0.48915505  0.12867251  0.16583843  1
  O  O225  1  0.49592374  0.12579545  0.40577868  1
  O  O226  1  0.49152361  0.12991549  0.66581419  1
  O  O227  1  0.49207323  0.12554123  0.91571420  1
  O  O228  1  0.49222652  0.37886310  0.16360116  1
  O  O229  1  0.50828127  0.37024336  0.41186685  1
  O  O230  1  0.50119382  0.37669056  0.66455820  1
  O  O231  1  0.48783083  0.37454702  0.91225674  1
  O  O232  1  0.49137282  0.62279580  0.16512062  1
  O  O233  1  0.50224906  0.62281855  0.40702610  1
  O  O234  1  0.49457342  0.62266085  0.66091048  1
  O  O235  1  0.49375580  0.62486937  0.91290577  1
  O  O236  1  0.49880937  0.87299715  0.16721410  1
  O  O237  1  0.49766462  0.87890676  0.41378966  1
  O  O238  1  0.48736500  0.87636267  0.66287840  1
  O  O239  1  0.49166468  0.87553708  0.91209536  1
  O  O240  1  0.75135232  0.12620382  0.15867675  1
  O  O241  1  0.75784879  0.12336376  0.41189452  1
  O  O242  1  0.75577157  0.12953705  0.66863635  1
  O  O243  1  0.74814250  0.12855986  0.91299564  1
  O  O244  1  0.75737928  0.38085178  0.15606138  1
  O  O245  1  0.74325103  0.36967010  0.41058958  1
  O  O246  1  0.74622096  0.37739869  0.66564017  1
  O  O247  1  0.75676971  0.38110789  0.91083962  1
  O  O248  1  0.75797879  0.62413228  0.16106166  1
  O  O249  1  0.75113998  0.62514788  0.41321956  1
  O  O250  1  0.75708686  0.62231562  0.66258156  1
  O  O251  1  0.76146236  0.61976611  0.91227312  1
  O  O252  1  0.74438384  0.87225417  0.15452009  1
  O  O253  1  0.75871857  0.88055500  0.41206258  1
  O  O254  1  0.75244889  0.87534780  0.66516884  1
  O  O255  1  0.75038432  0.87161758  0.91026629  1
  O  O256  1  0.13289199  0.12918103  0.03430452  1
  O  O257  1  0.12402032  0.12380811  0.29561644  1
  O  O258  1  0.12762827  0.12986486  0.53683902  1
  O  O259  1  0.13089825  0.12615677  0.80287022  1
  O  O260  1  0.12623727  0.38029018  0.05441711  1
  O  O261  1  0.12055613  0.36867931  0.28299432  1
  O  O262  1  0.12384289  0.36803315  0.53387585  1
  O  O263  1  0.12672186  0.37373596  0.80085709  1
  O  O264  1  0.12650540  0.62169695  0.05265002  1
  O  O265  1  0.12106914  0.62816354  0.29459811  1
  O  O266  1  0.12300517  0.62489892  0.54754673  1
  O  O267  1  0.13232538  0.62192260  0.78605649  1
  O  O268  1  0.12789965  0.86677117  0.03955425  1
  O  O269  1  0.12641812  0.87550285  0.28154390  1
  O  O270  1  0.11866405  0.87852043  0.53604552  1
  O  O271  1  0.13310224  0.87919322  0.79946110  1
  O  O272  1  0.37319123  0.12467738  0.04933329  1
  O  O273  1  0.37472256  0.12474606  0.29522732  1
  O  O274  1  0.37757579  0.12564128  0.54714216  1
  O  O275  1  0.37282905  0.12484851  0.79869906  1
  O  O276  1  0.37283860  0.37808153  0.05276018  1
  O  O277  1  0.37320646  0.37403941  0.28573734  1
  O  O278  1  0.37968412  0.37199597  0.54638546  1
  O  O279  1  0.37078137  0.37190006  0.79884140  1
  O  O280  1  0.37046152  0.62262583  0.05559577  1
  O  O281  1  0.36932898  0.62006958  0.28207777  1
  O  O282  1  0.37371538  0.61951397  0.54615746  1
  O  O283  1  0.36357839  0.62502442  0.78374153  1
  O  O284  1  0.37921341  0.87125554  0.05092028  1
  O  O285  1  0.37712218  0.87684395  0.28281646  1
  O  O286  1  0.37236250  0.87277357  0.54464748  1
  O  O287  1  0.37296349  0.87794897  0.79903706  1
  O  O288  1  0.61664235  0.13091034  0.04010202  1
  O  O289  1  0.63081243  0.12571290  0.27896904  1
  O  O290  1  0.62588252  0.13463634  0.54234517  1
  O  O291  1  0.61996335  0.13119773  0.78207610  1
  O  O292  1  0.61943054  0.38216559  0.03173654  1
  O  O293  1  0.62537465  0.36776107  0.29308744  1
  O  O294  1  0.62557859  0.37429694  0.55139990  1
  O  O295  1  0.61908969  0.38433202  0.79147897  1
  O  O296  1  0.61960597  0.62104003  0.04330412  1
  O  O297  1  0.63246690  0.62943203  0.27687605  1
  O  O298  1  0.63150703  0.62332943  0.53714589  1
  O  O299  1  0.62078059  0.61848594  0.78289620  1
  O  O300  1  0.61942100  0.87094019  0.04682121  1
  O  O301  1  0.61777684  0.87669512  0.28437306  1
  O  O302  1  0.62533360  0.87992830  0.53670983  1
  O  O303  1  0.61868702  0.87280027  0.78146673  1
  O  O304  1  0.87832172  0.12926039  0.02487460  1
  O  O305  1  0.87514189  0.12112799  0.29538444  1
  O  O306  1  0.87134329  0.12912540  0.55105845  1
  O  O307  1  0.87737832  0.13867058  0.79381936  1
  O  O308  1  0.88124087  0.38506903  0.04779731  1
  O  O309  1  0.87928364  0.37436661  0.28267139  1
  O  O310  1  0.87085610  0.37358357  0.54694641  1
  O  O311  1  0.87736016  0.37785127  0.80143704  1
  O  O312  1  0.88145428  0.62175929  0.05075461  1
  O  O313  1  0.87208449  0.62696072  0.28310229  1
  O  O314  1  0.87362762  0.62266369  0.54719103  1
  O  O315  1  0.88049515  0.61844748  0.79814501  1
  O  O316  1  0.88401915  0.86733131  0.02735914  1
  O  O317  1  0.87568547  0.87674633  0.29705043  1
  O  O318  1  0.88618626  0.87824195  0.53949994  1
  O  O319  1  0.88037551  0.87370125  0.78497652  1
