# generated using pymatgen
data_VFe(PbO3)2
_symmetry_space_group_name_H-M   'P 1'
_cell_length_a   15.39172888
_cell_length_b   15.38771743
_cell_length_c   18.48516489
_cell_angle_alpha   89.98826558
_cell_angle_beta   90.02637602
_cell_angle_gamma   90.01231160
_symmetry_Int_Tables_number   1
_chemical_formula_structural   VFe(PbO3)2
_chemical_formula_sum   'V32 Fe32 Pb64 O192'
_cell_volume   4378.09187492
_cell_formula_units_Z   32
loop_
 _symmetry_equiv_pos_site_id
 _symmetry_equiv_pos_as_xyz
  1  'x, y, z'
loop_
 _atom_site_type_symbol
 _atom_site_label
 _atom_site_symmetry_multiplicity
 _atom_site_fract_x
 _atom_site_fract_y
 _atom_site_fract_z
 _atom_site_occupancy
  V  V0  1  0.37336529  0.37475864  0.14392102  1
  V  V1  1  0.12415967  0.37452223  0.64246036  1
  V  V2  1  0.62253318  0.37519809  0.88346798  1
  V  V3  1  0.87485604  0.12475296  0.64832899  1
  V  V4  1  0.62554620  0.87433036  0.64545343  1
  V  V5  1  0.63237685  0.11991902  0.39078313  1
  V  V6  1  0.37637265  0.87493817  0.39133833  1
  V  V7  1  0.87268748  0.37439479  0.64367093  1
  V  V8  1  0.87186950  0.87544042  0.39337620  1
  V  V9  1  0.12452089  0.87446125  0.13964463  1
  V  V10  1  0.87653781  0.37726000  0.13977966  1
  V  V11  1  0.37332191  0.62515080  0.63831121  1
  V  V12  1  0.12960879  0.12222769  0.39388442  1
  V  V13  1  0.12509066  0.37469918  0.13973170  1
  V  V14  1  0.87872266  0.12249724  0.38749578  1
  V  V15  1  0.87314656  0.62633659  0.13936675  1
  V  V16  1  0.12738288  0.12699742  0.13798372  1
  V  V17  1  0.37481816  0.62514675  0.39089161  1
  V  V18  1  0.12214467  0.62533796  0.64023770  1
  V  V19  1  0.62459076  0.37504736  0.14024654  1
  V  V20  1  0.37861774  0.12566834  0.63897298  1
  V  V21  1  0.12605596  0.12411166  0.64457566  1
  V  V22  1  0.38289342  0.12199337  0.39174771  1
  V  V23  1  0.62163385  0.62968759  0.39314436  1
  V  V24  1  0.37628303  0.12447354  0.14221869  1
  V  V25  1  0.62687591  0.12582305  0.64293183  1
  V  V26  1  0.87120928  0.62600412  0.39324718  1
  V  V27  1  0.12824724  0.87428318  0.88134085  1
  V  V28  1  0.37453450  0.62511580  0.88233901  1
  V  V29  1  0.62299149  0.61928579  0.64491422  1
  V  V30  1  0.37390016  0.12502724  0.88313672  1
  V  V31  1  0.12314117  0.62370047  0.14106354  1
  Fe  Fe32  1  0.37660257  0.87591305  0.64906416  1
  Fe  Fe33  1  0.62665420  0.37761725  0.39458935  1
  Fe  Fe34  1  0.37113255  0.87370935  0.13386240  1
  Fe  Fe35  1  0.62225576  0.87490303  0.88940773  1
  Fe  Fe36  1  0.87873002  0.12629291  0.13109893  1
  Fe  Fe37  1  0.62513940  0.87411580  0.12516920  1
  Fe  Fe38  1  0.87442162  0.37619021  0.88012162  1
  Fe  Fe39  1  0.37281245  0.62359454  0.13608615  1
  Fe  Fe40  1  0.87579614  0.62311692  0.87440853  1
  Fe  Fe41  1  0.62308736  0.12629897  0.88944762  1
  Fe  Fe42  1  0.87914549  0.87328507  0.12804182  1
  Fe  Fe43  1  0.62612306  0.37114795  0.63436369  1
  Fe  Fe44  1  0.62578290  0.12905732  0.12818406  1
  Fe  Fe45  1  0.62328980  0.62346749  0.88150647  1
  Fe  Fe46  1  0.12725623  0.62722969  0.87604073  1
  Fe  Fe47  1  0.37291527  0.87496594  0.87704758  1
  Fe  Fe48  1  0.62320118  0.62112315  0.13075108  1
  Fe  Fe49  1  0.37537015  0.37379450  0.38760187  1
  Fe  Fe50  1  0.12342719  0.62686743  0.38865267  1
  Fe  Fe51  1  0.62600654  0.87464599  0.38860168  1
  Fe  Fe52  1  0.37537061  0.37478025  0.64497593  1
  Fe  Fe53  1  0.87288404  0.62389230  0.64520868  1
  Fe  Fe54  1  0.12400075  0.87503441  0.63285160  1
  Fe  Fe55  1  0.12271024  0.37513483  0.38792202  1
  Fe  Fe56  1  0.87694223  0.12670016  0.88125376  1
  Fe  Fe57  1  0.37762094  0.37512117  0.87643759  1
  Fe  Fe58  1  0.87370030  0.37252018  0.38553062  1
  Fe  Fe59  1  0.12316678  0.87463200  0.39758645  1
  Fe  Fe60  1  0.12853407  0.12383425  0.87861956  1
  Fe  Fe61  1  0.87394180  0.87637564  0.64990460  1
  Fe  Fe62  1  0.87673665  0.87423547  0.87867162  1
  Fe  Fe63  1  0.12833509  0.37639985  0.87935383  1
  Pb  Pb64  1  -0.00989438  0.00402101  -0.00792159  1
  Pb  Pb65  1  0.00015203  -0.00215728  0.24661527  1
  Pb  Pb66  1  -0.00180548  -0.00878608  0.50951291  1
  Pb  Pb67  1  -0.00593093  -0.00105448  0.75408104  1
  Pb  Pb68  1  -0.00056948  0.24829342  -0.01203829  1
  Pb  Pb69  1  0.00181443  0.25743662  0.24965782  1
  Pb  Pb70  1  -0.00194403  0.24818450  0.49927805  1
  Pb  Pb71  1  0.00027765  0.24753710  0.75738869  1
  Pb  Pb72  1  0.00243412  0.50104856  -0.01618871  1
  Pb  Pb73  1  0.00240014  0.49766280  0.25420180  1
  Pb  Pb74  1  -0.00115351  0.50055007  0.49909911  1
  Pb  Pb75  1  0.00245144  0.49770963  0.75369830  1
  Pb  Pb76  1  -0.00422507  0.75175794  -0.01168399  1
  Pb  Pb77  1  0.00952222  0.74923519  0.25585680  1
  Pb  Pb78  1  -0.00453200  0.75266705  0.50740104  1
  Pb  Pb79  1  -0.00843936  0.75292367  0.74849755  1
  Pb  Pb80  1  0.25538336  -0.00680304  -0.00455153  1
  Pb  Pb81  1  0.24331348  -0.00407564  0.25282029  1
  Pb  Pb82  1  0.25135253  -0.00827918  0.50855823  1
  Pb  Pb83  1  0.25066487  -0.00264368  0.74886714  1
  Pb  Pb84  1  0.24878497  0.25387171  -0.01006014  1
  Pb  Pb85  1  0.25112461  0.25700546  0.25495495  1
  Pb  Pb86  1  0.25532062  0.25535964  0.50308241  1
  Pb  Pb87  1  0.24293632  0.25246549  0.75281450  1
  Pb  Pb88  1  0.25313947  0.50226618  -0.00837813  1
  Pb  Pb89  1  0.24225325  0.49870815  0.25331100  1
  Pb  Pb90  1  0.25011434  0.49527416  0.49911900  1
  Pb  Pb91  1  0.24172780  0.49886874  0.75268677  1
  Pb  Pb92  1  0.26091353  0.74814550  -0.00169582  1
  Pb  Pb93  1  0.24551042  0.74761125  0.25212299  1
  Pb  Pb94  1  0.24524907  0.75534041  0.50363988  1
  Pb  Pb95  1  0.25098255  0.75276523  0.74652379  1
  Pb  Pb96  1  0.50535161  -0.00716193  -0.00355179  1
  Pb  Pb97  1  0.51134350  -0.00887286  0.24260003  1
  Pb  Pb98  1  0.49525085  -0.00717313  0.50802720  1
  Pb  Pb99  1  0.51167705  -0.00122669  0.76129329  1
  Pb  Pb100  1  0.50248209  0.24779123  -0.00339060  1
  Pb  Pb101  1  0.50336689  0.26009514  0.25729591  1
  Pb  Pb102  1  0.50014624  0.26071651  0.50727495  1
  Pb  Pb103  1  0.49923505  0.25448885  0.74939682  1
  Pb  Pb104  1  0.49700844  0.50984352  -0.00103728  1
  Pb  Pb105  1  0.49865054  0.49769554  0.25094020  1
  Pb  Pb106  1  0.49933528  0.48922464  0.50560086  1
  Pb  Pb107  1  0.49968478  0.49825873  0.74949855  1
  Pb  Pb108  1  0.50401456  0.75252297  -0.00473071  1
  Pb  Pb109  1  0.50096900  0.75113774  0.23809226  1
  Pb  Pb110  1  0.49347127  0.75573386  0.50613907  1
  Pb  Pb111  1  0.51121604  0.75141038  0.75769470  1
  Pb  Pb112  1  0.75248660  -0.00485267  -0.00989131  1
  Pb  Pb113  1  0.75049831  -0.00042635  0.23315180  1
  Pb  Pb114  1  0.75689191  -0.00783804  0.50814293  1
  Pb  Pb115  1  0.73828473  0.00073488  0.76476722  1
  Pb  Pb116  1  0.75593106  0.23894036  -0.00483019  1
  Pb  Pb117  1  0.75283599  0.25284417  0.24738095  1
  Pb  Pb118  1  0.74693209  0.25345107  0.49986367  1
  Pb  Pb119  1  0.75798591  0.24651829  0.75668706  1
  Pb  Pb120  1  0.74638152  0.50618338  -0.00945217  1
  Pb  Pb121  1  0.75019031  0.49123679  0.25418060  1
  Pb  Pb122  1  0.75285342  0.50599649  0.50445560  1
  Pb  Pb123  1  0.75862355  0.49938388  0.75468210  1
  Pb  Pb124  1  0.74922749  0.75266258  -0.01350977  1
  Pb  Pb125  1  0.74109628  0.75900035  0.24180888  1
  Pb  Pb126  1  0.76100532  0.74909733  0.51389266  1
  Pb  Pb127  1  0.75138665  0.74810008  0.75527966  1
  O  O128  1  0.12550830  -0.00237401  0.16376336  1
  O  O129  1  0.12342210  0.00659772  0.42200134  1
  O  O130  1  0.12270653  0.00765757  0.66042744  1
  O  O131  1  0.13018830  -0.00686661  0.90556331  1
  O  O132  1  0.12562565  0.25135564  0.16596698  1
  O  O133  1  0.12327945  0.24097143  0.41782116  1
  O  O134  1  0.12403649  0.25348829  0.66397677  1
  O  O135  1  0.13050865  0.24999534  0.90927136  1
  O  O136  1  0.12428972  0.49870823  0.16716723  1
  O  O137  1  0.12430322  0.50271799  0.41925724  1
  O  O138  1  0.12602915  0.49836903  0.66241810  1
  O  O139  1  0.13056373  0.50258642  0.90977078  1
  O  O140  1  0.12416870  0.75230325  0.16582792  1
  O  O141  1  0.12366471  0.74795805  0.42352150  1
  O  O142  1  0.12917249  0.74240400  0.65527117  1
  O  O143  1  0.12963294  0.75567895  0.90687878  1
  O  O144  1  0.36905864  0.00780733  0.16465463  1
  O  O145  1  0.37293194  0.00265821  0.42029282  1
  O  O146  1  0.37127601  0.01139464  0.66478955  1
  O  O147  1  0.37160522  0.00561283  0.90680876  1
  O  O148  1  0.37106151  0.24751533  0.16993640  1
  O  O149  1  0.37301152  0.23900750  0.41556766  1
  O  O150  1  0.37140998  0.24141471  0.66498175  1
  O  O151  1  0.37516559  0.24506538  0.90721034  1
  O  O152  1  0.37279582  0.49408347  0.16886308  1
  O  O153  1  0.37816340  0.50725894  0.41291035  1
  O  O154  1  0.37976078  0.50841396  0.66182933  1
  O  O155  1  0.37419312  0.50506243  0.90624947  1
  O  O156  1  0.36969426  0.74967766  0.16597933  1
  O  O157  1  0.37843070  0.74890463  0.41725253  1
  O  O158  1  0.37632772  0.74133401  0.66417016  1
  O  O159  1  0.37299201  0.74441828  0.90513927  1
  O  O160  1  0.62360109  0.00277660  0.15526260  1
  O  O161  1  0.62471887  0.00500966  0.41935908  1
  O  O162  1  0.62532007  0.00285334  0.66897583  1
  O  O163  1  0.62219031  0.00155809  0.91431368  1
  O  O164  1  0.62478540  0.25706955  0.16446527  1
  O  O165  1  0.62404628  0.23526585  0.41787983  1
  O  O166  1  0.62766324  0.24478999  0.66543512  1
  O  O167  1  0.61937468  0.25741782  0.91010386  1
  O  O168  1  0.62544670  0.49230966  0.16643027  1
  O  O169  1  0.62555343  0.51140926  0.41896631  1
  O  O170  1  0.62199434  0.50222346  0.65936836  1
  O  O171  1  0.62085015  0.49376367  0.90880806  1
  O  O172  1  0.62569365  0.74716683  0.15764307  1
  O  O173  1  0.62490361  0.74558711  0.41949206  1
  O  O174  1  0.62395426  0.75466526  0.66478312  1
  O  O175  1  0.62028924  0.74763802  0.90868530  1
  O  O176  1  0.88168142  -0.00096250  0.16018551  1
  O  O177  1  0.87391918  -0.00284096  0.41860479  1
  O  O178  1  0.87945950  0.00907132  0.66580836  1
  O  O179  1  0.87942123  -0.00048619  0.90358632  1
  O  O180  1  0.87822198  0.25635525  0.16339119  1
  O  O181  1  0.87485678  0.24244687  0.41466993  1
  O  O182  1  0.87727977  0.25262499  0.66721571  1
  O  O183  1  0.87505860  0.25329791  0.91032110  1
  O  O184  1  0.87731639  0.50216463  0.16913439  1
  O  O185  1  0.87011850  0.50786704  0.41253043  1
  O  O186  1  0.87522536  0.49244753  0.66238400  1
  O  O187  1  0.87281543  0.49958918  0.90975218  1
  O  O188  1  0.87967909  0.74182539  0.16173835  1
  O  O189  1  0.87048027  0.75329606  0.41912413  1
  O  O190  1  0.87201687  0.74890157  0.66621874  1
  O  O191  1  0.87885531  0.74852259  0.90291671  1
  O  O192  1  0.00858295  0.12635972  0.16571773  1
  O  O193  1  0.00015949  0.12152016  0.41751050  1
  O  O194  1  0.00120674  0.13130660  0.66650036  1
  O  O195  1  0.00465960  0.12594695  0.90715795  1
  O  O196  1  0.00136274  0.37686753  0.16648812  1
  O  O197  1  -0.00265094  0.37504763  0.41813288  1
  O  O198  1  0.00174147  0.37511266  0.66481147  1
  O  O199  1  0.00195360  0.37683404  0.90585400  1
  O  O200  1  -0.00065570  0.62269334  0.16865759  1
  O  O201  1  -0.01097379  0.62931674  0.41511509  1
  O  O202  1  0.00670708  0.62064615  0.65763983  1
  O  O203  1  0.00218425  0.62392087  0.90309406  1
  O  O204  1  0.00756573  0.87313477  0.16455042  1
  O  O205  1  -0.01053634  0.87471481  0.42002771  1
  O  O206  1  0.00355139  0.87515312  0.66491076  1
  O  O207  1  0.01117125  0.87423619  0.90515396  1
  O  O208  1  0.24788818  0.12640575  0.17148517  1
  O  O209  1  0.24688715  0.12231388  0.41686370  1
  O  O210  1  0.24651555  0.12845385  0.66135195  1
  O  O211  1  0.25656845  0.12534696  0.91155736  1
  O  O212  1  0.24821661  0.37401046  0.16853690  1
  O  O213  1  0.25007275  0.37282557  0.41684543  1
  O  O214  1  0.24354779  0.37549432  0.66017847  1
  O  O215  1  0.25542953  0.37572428  0.91029207  1
  O  O216  1  0.24295255  0.62317491  0.16817066  1
  O  O217  1  0.25906804  0.62754150  0.41467808  1
  O  O218  1  0.25355294  0.62151624  0.65874515  1
  O  O219  1  0.25623062  0.62513688  0.90840992  1
  O  O220  1  0.24161239  0.87574786  0.16791169  1
  O  O221  1  0.25550322  0.87599409  0.41968490  1
  O  O222  1  0.24740821  0.87671857  0.66227377  1
  O  O223  1  0.24697673  0.87430835  0.91059400  1
  O  O224  1  0.49162644  0.12872642  0.16262293  1
  O  O225  1  0.49709233  0.11954497  0.41144791  1
  O  O226  1  0.49631470  0.12659343  0.65932897  1
  O  O227  1  0.49006867  0.12532857  0.91080873  1
  O  O228  1  0.50231991  0.37325090  0.16662496  1
  O  O229  1  0.49924800  0.37284243  0.41898881  1
  O  O230  1  0.50289423  0.37134987  0.66490291  1
  O  O231  1  0.50264571  0.37611181  0.90980388  1
  O  O232  1  0.49951842  0.61988715  0.16534203  1
  O  O233  1  0.50053512  0.62832987  0.41535103  1
  O  O234  1  0.50118005  0.62813791  0.66465134  1
  O  O235  1  0.49205361  0.62304921  0.90871371  1
  O  O236  1  0.49771771  0.87664776  0.15788736  1
  O  O237  1  0.49822549  0.87744170  0.42048884  1
  O  O238  1  0.50780574  0.87900019  0.66761630  1
  O  O239  1  0.49359578  0.87539544  0.90839757  1
  O  O240  1  0.75160902  0.12921732  0.15796951  1
  O  O241  1  0.75035444  0.12107466  0.41318034  1
  O  O242  1  0.75502780  0.12695412  0.66603852  1
  O  O243  1  0.75028969  0.12768117  0.90860684  1
  O  O244  1  0.74789622  0.37590675  0.16430957  1
  O  O245  1  0.75174094  0.37332528  0.42041419  1
  O  O246  1  0.75464363  0.37304105  0.66088493  1
  O  O247  1  0.73934169  0.37474600  0.90835650  1
  O  O248  1  0.75753639  0.62062959  0.16100564  1
  O  O249  1  0.74915820  0.62914273  0.42009243  1
  O  O250  1  0.73965278  0.62592639  0.66506287  1
  O  O251  1  0.74962839  0.62290457  0.90498118  1
  O  O252  1  0.75294334  0.87306834  0.15539254  1
  O  O253  1  0.75400629  0.87689963  0.41944695  1
  O  O254  1  0.74122551  0.87951356  0.66946879  1
  O  O255  1  0.75128498  0.87464449  0.90435040  1
  O  O256  1  0.13043273  0.12536351  0.04732543  1
  O  O257  1  0.12801026  0.12019960  0.30272035  1
  O  O258  1  0.12340168  0.12872021  0.55333974  1
  O  O259  1  0.12986310  0.13160343  0.77833108  1
  O  O260  1  0.12615133  0.37560505  0.04902254  1
  O  O261  1  0.12221403  0.37525592  0.28759444  1
  O  O262  1  0.12146446  0.37496113  0.55075357  1
  O  O263  1  0.13068506  0.37956267  0.77802888  1
  O  O264  1  0.12357788  0.62656734  0.05031540  1
  O  O265  1  0.12198226  0.63045877  0.28832734  1
  O  O266  1  0.12728683  0.61925789  0.54865229  1
  O  O267  1  0.13095075  0.62078755  0.77567261  1
  O  O268  1  0.12660272  0.87305260  0.04941580  1
  O  O269  1  0.12129770  0.87589131  0.29722928  1
  O  O270  1  0.12227242  0.87927655  0.53082352  1
  O  O271  1  0.13132123  0.87351932  0.78957748  1
  O  O272  1  0.37114519  0.12758403  0.05165726  1
  O  O273  1  0.37719029  0.12014439  0.30125483  1
  O  O274  1  0.37490031  0.12444958  0.54713852  1
  O  O275  1  0.37226033  0.12554497  0.79183261  1
  O  O276  1  0.37507653  0.37384155  0.05294889  1
  O  O277  1  0.37926746  0.36768788  0.28743953  1
  O  O278  1  0.37893382  0.37051283  0.54243929  1
  O  O279  1  0.37864697  0.37412023  0.77531750  1
  O  O280  1  0.37108734  0.62189127  0.03631322  1
  O  O281  1  0.37543760  0.62678910  0.30020780  1
  O  O282  1  0.37715843  0.62683026  0.54694763  1
  O  O283  1  0.37503280  0.62437987  0.79097236  1
  O  O284  1  0.36151003  0.87388935  0.03429545  1
  O  O285  1  0.37555732  0.87746321  0.30034674  1
  O  O286  1  0.38299634  0.87888997  0.54678647  1
  O  O287  1  0.36709358  0.87591435  0.77511815  1
  O  O288  1  0.61740336  0.13646078  0.02837221  1
  O  O289  1  0.62850283  0.12135940  0.29975598  1
  O  O290  1  0.62753323  0.12222820  0.55166643  1
  O  O291  1  0.62289711  0.11625756  0.78711659  1
  O  O292  1  0.62255527  0.37637706  0.04999328  1
  O  O293  1  0.62567679  0.37240645  0.29411530  1
  O  O294  1  0.62046089  0.36910727  0.53318496  1
  O  O295  1  0.62152929  0.37450197  0.79161543  1
  O  O296  1  0.61912182  0.61499015  0.03088579  1
  O  O297  1  0.62561727  0.62762543  0.30247314  1
  O  O298  1  0.62212358  0.62663514  0.55360645  1
  O  O299  1  0.61780826  0.62784214  0.78021477  1
  O  O300  1  0.62117527  0.87291512  0.02433007  1
  O  O301  1  0.62625021  0.87554986  0.28953642  1
  O  O302  1  0.62591465  0.87827067  0.55338984  1
  O  O303  1  0.62030199  0.88379447  0.78620063  1
  O  O304  1  0.88238390  0.12815853  0.03114231  1
  O  O305  1  0.87955004  0.12097335  0.29666663  1
  O  O306  1  0.87583819  0.12803829  0.55671460  1
  O  O307  1  0.87794664  0.13407951  0.77886862  1
  O  O308  1  0.87472547  0.38049347  0.04926997  1
  O  O309  1  0.87085943  0.37555528  0.28530037  1
  O  O310  1  0.87704494  0.37104272  0.55220729  1
  O  O311  1  0.86962360  0.37752305  0.77932707  1
  O  O312  1  0.87723884  0.62272662  0.04876578  1
  O  O313  1  0.86759217  0.63153338  0.30291478  1
  O  O314  1  0.86555275  0.62635809  0.54295611  1
  O  O315  1  0.87240137  0.61772015  0.77157781  1
  O  O316  1  0.88542602  0.87163944  0.02851300  1
  O  O317  1  0.87353022  0.87438914  0.30278560  1
  O  O318  1  0.86843879  0.87889165  0.54690339  1
  O  O319  1  0.88248331  0.87488165  0.77555510  1
