# generated using pymatgen
data_VFe(PbO3)2
_symmetry_space_group_name_H-M   'P 1'
_cell_length_a   15.38657125
_cell_length_b   15.38341936
_cell_length_c   18.53374591
_cell_angle_alpha   90.03668394
_cell_angle_beta   90.00471916
_cell_angle_gamma   89.98508526
_symmetry_Int_Tables_number   1
_chemical_formula_structural   VFe(PbO3)2
_chemical_formula_sum   'V32 Fe32 Pb64 O192'
_cell_volume   4386.90097123
_cell_formula_units_Z   32
loop_
 _symmetry_equiv_pos_site_id
 _symmetry_equiv_pos_as_xyz
  1  'x, y, z'
loop_
 _atom_site_type_symbol
 _atom_site_label
 _atom_site_symmetry_multiplicity
 _atom_site_fract_x
 _atom_site_fract_y
 _atom_site_fract_z
 _atom_site_occupancy
  V  V0  1  0.62352492  0.62785409  0.13213903  1
  V  V1  1  0.87706241  0.37620288  0.64278744  1
  V  V2  1  0.87341580  0.62376487  0.64520523  1
  V  V3  1  0.37317076  0.62285841  0.63965393  1
  V  V4  1  0.37232737  0.12694647  0.88716765  1
  V  V5  1  0.62853307  0.12498546  0.88562328  1
  V  V6  1  0.37800898  0.87538512  0.13661953  1
  V  V7  1  0.12693113  0.37402846  0.89446673  1
  V  V8  1  0.37457357  0.37618028  0.64220376  1
  V  V9  1  0.62434363  0.37521901  0.38373476  1
  V  V10  1  0.12729449  0.12512158  0.14130020  1
  V  V11  1  0.37721823  0.37420289  0.14080274  1
  V  V12  1  0.62116710  0.62378682  0.64924728  1
  V  V13  1  0.12333335  0.62327689  0.63821815  1
  V  V14  1  0.87620561  0.87487708  0.64469879  1
  V  V15  1  0.87732364  0.87578878  0.38802754  1
  V  V16  1  0.12550757  0.62463114  0.89375997  1
  V  V17  1  0.87669109  0.87474627  0.88816764  1
  V  V18  1  0.37470453  0.62367631  0.89061883  1
  V  V19  1  0.62957015  0.87490153  0.39078472  1
  V  V20  1  0.12192413  0.37722767  0.63643219  1
  V  V21  1  0.12677427  0.62431952  0.14324609  1
  V  V22  1  0.38201154  0.87499109  0.39057167  1
  V  V23  1  0.62391085  0.12194839  0.13358846  1
  V  V24  1  0.12678382  0.87557596  0.14017305  1
  V  V25  1  0.12360423  0.12817064  0.64264992  1
  V  V26  1  0.13116074  0.87585104  0.39048495  1
  V  V27  1  0.12624724  0.87629328  0.88953794  1
  V  V28  1  0.86883047  0.87501871  0.13440605  1
  V  V29  1  0.62845678  0.37431867  0.64446118  1
  V  V30  1  0.12117122  0.87431366  0.64194057  1
  V  V31  1  0.87402461  0.12565039  0.64393181  1
  Fe  Fe32  1  0.37433192  0.62717330  0.13747407  1
  Fe  Fe33  1  0.12700129  0.37482154  0.14359058  1
  Fe  Fe34  1  0.37872259  0.62797848  0.38267969  1
  Fe  Fe35  1  0.12524856  0.37445244  0.37349991  1
  Fe  Fe36  1  0.37812545  0.37538753  0.38045007  1
  Fe  Fe37  1  0.37098753  0.37529426  0.88410891  1
  Fe  Fe38  1  0.87896224  0.62494168  0.89278764  1
  Fe  Fe39  1  0.62189404  0.37402377  0.12785660  1
  Fe  Fe40  1  0.87193452  0.12217343  0.38035077  1
  Fe  Fe41  1  0.87590001  0.62918406  0.13266404  1
  Fe  Fe42  1  0.37349716  0.87330747  0.64324370  1
  Fe  Fe43  1  0.62548965  0.62458566  0.88290358  1
  Fe  Fe44  1  0.12473594  0.12147777  0.38151940  1
  Fe  Fe45  1  0.12543916  0.62903729  0.38025358  1
  Fe  Fe46  1  0.62412184  0.62749320  0.38534815  1
  Fe  Fe47  1  0.87130423  0.37445635  0.37487874  1
  Fe  Fe48  1  0.36924313  0.87434363  0.88049116  1
  Fe  Fe49  1  0.62259537  0.87603750  0.88752918  1
  Fe  Fe50  1  0.62628471  0.12726058  0.63699794  1
  Fe  Fe51  1  0.87964905  0.12540610  0.89049313  1
  Fe  Fe52  1  0.87298269  0.37435307  0.13684821  1
  Fe  Fe53  1  0.37446884  0.12215867  0.14048019  1
  Fe  Fe54  1  0.87043233  0.62864049  0.38038193  1
  Fe  Fe55  1  0.62125571  0.37440833  0.89345777  1
  Fe  Fe56  1  0.37713993  0.12305200  0.38315316  1
  Fe  Fe57  1  0.87689736  0.37387007  0.88997703  1
  Fe  Fe58  1  0.62773228  0.87369386  0.64427349  1
  Fe  Fe59  1  0.62523001  0.12363254  0.38896175  1
  Fe  Fe60  1  0.37676520  0.12683105  0.63627890  1
  Fe  Fe61  1  0.87550433  0.11988825  0.13524932  1
  Fe  Fe62  1  0.12707436  0.12561940  0.88341985  1
  Fe  Fe63  1  0.62304184  0.87547705  0.12554898  1
  Pb  Pb64  1  -0.00019929  0.00775175  0.00116708  1
  Pb  Pb65  1  0.00213491  0.00610750  0.25067787  1
  Pb  Pb66  1  -0.00212058  0.00530425  0.49805167  1
  Pb  Pb67  1  0.00146183  0.01222406  0.75712363  1
  Pb  Pb68  1  -0.00717417  0.25159190  0.00578287  1
  Pb  Pb69  1  -0.00511489  0.25450226  0.24558512  1
  Pb  Pb70  1  -0.00124011  0.25207246  0.48401662  1
  Pb  Pb71  1  -0.00517626  0.25027210  0.75733444  1
  Pb  Pb72  1  -0.00812910  0.49472198  0.00789076  1
  Pb  Pb73  1  -0.00719191  0.49443443  0.24616287  1
  Pb  Pb74  1  -0.00123623  0.49892186  0.48261985  1
  Pb  Pb75  1  -0.01043968  0.50081328  0.75635769  1
  Pb  Pb76  1  -0.00167888  0.74781853  0.00499077  1
  Pb  Pb77  1  0.00167043  0.74431042  0.25058414  1
  Pb  Pb78  1  -0.00266401  0.74612349  0.49656137  1
  Pb  Pb79  1  -0.00504550  0.74312345  0.75492141  1
  Pb  Pb80  1  0.25888225  0.00954091  0.00273302  1
  Pb  Pb81  1  0.25030024  0.00560829  0.25341023  1
  Pb  Pb82  1  0.26222496  0.00661017  0.50453279  1
  Pb  Pb83  1  0.25196036  0.00193431  0.74810030  1
  Pb  Pb84  1  0.24471085  0.25580328  0.00571262  1
  Pb  Pb85  1  0.25173900  0.25530623  0.25394403  1
  Pb  Pb86  1  0.25161275  0.24826340  0.48676840  1
  Pb  Pb87  1  0.24733424  0.25114455  0.74736608  1
  Pb  Pb88  1  0.24750821  0.49929985  0.00810463  1
  Pb  Pb89  1  0.25229908  0.49518059  0.25347981  1
  Pb  Pb90  1  0.24842274  0.50045638  0.48472987  1
  Pb  Pb91  1  0.25061122  0.49499263  0.75005276  1
  Pb  Pb92  1  0.25671004  0.74470826  0.00427902  1
  Pb  Pb93  1  0.25038189  0.74489612  0.25233323  1
  Pb  Pb94  1  0.25639280  0.75297270  0.50106864  1
  Pb  Pb95  1  0.25228651  0.75033092  0.75155632  1
  Pb  Pb96  1  0.49605602  -0.00088091  -0.00583614  1
  Pb  Pb97  1  0.50472324  0.00954183  0.25199133  1
  Pb  Pb98  1  0.50038484  0.00769331  0.50897932  1
  Pb  Pb99  1  0.50097748  -0.00063927  0.74402642  1
  Pb  Pb100  1  0.49776301  0.25120508  -0.00128657  1
  Pb  Pb101  1  0.49586062  0.24631276  0.24888443  1
  Pb  Pb102  1  0.49613794  0.24200943  0.49640444  1
  Pb  Pb103  1  0.50174028  0.25772693  0.75183198  1
  Pb  Pb104  1  0.50210426  0.49673952  -0.00188223  1
  Pb  Pb105  1  0.49486367  0.50386944  0.24759606  1
  Pb  Pb106  1  0.49841895  0.50378746  0.49364481  1
  Pb  Pb107  1  0.50531807  0.49344470  0.75941621  1
  Pb  Pb108  1  0.50292796  0.75599058  -0.00631865  1
  Pb  Pb109  1  0.50401436  0.74118805  0.24934283  1
  Pb  Pb110  1  0.50046983  0.76128770  0.50713679  1
  Pb  Pb111  1  0.50155478  0.76165536  0.75598117  1
  Pb  Pb112  1  0.75176707  0.00387735  -0.00153649  1
  Pb  Pb113  1  0.74604091  0.01100771  0.25133077  1
  Pb  Pb114  1  0.73965619  0.00282405  0.50589001  1
  Pb  Pb115  1  0.74531976  -0.00068133  0.75243619  1
  Pb  Pb116  1  0.75819204  0.26127405  0.00231789  1
  Pb  Pb117  1  0.75375933  0.24942097  0.24108160  1
  Pb  Pb118  1  0.74937658  0.24608522  0.49276720  1
  Pb  Pb119  1  0.76171242  0.25582710  0.75859711  1
  Pb  Pb120  1  0.75313919  0.49844744  -0.00614109  1
  Pb  Pb121  1  0.75268407  0.50074126  0.23902429  1
  Pb  Pb122  1  0.75307990  0.50288355  0.49154454  1
  Pb  Pb123  1  0.74440445  0.50023989  0.76157181  1
  Pb  Pb124  1  0.74736041  0.74655935  -0.00534133  1
  Pb  Pb125  1  0.74726158  0.73979830  0.24854373  1
  Pb  Pb126  1  0.74378545  0.75388815  0.50427598  1
  Pb  Pb127  1  0.74417657  0.74312829  0.76068378  1
  O  O128  1  0.12827335  -0.00334450  0.16463969  1
  O  O129  1  0.12314386  -0.01052858  0.41892690  1
  O  O130  1  0.12180560  -0.00515822  0.66421261  1
  O  O131  1  0.12562757  -0.00793713  0.90909826  1
  O  O132  1  0.12736995  0.24048184  0.16055648  1
  O  O133  1  0.12440765  0.24816393  0.40681816  1
  O  O134  1  0.12322753  0.25320368  0.66433068  1
  O  O135  1  0.13009565  0.25639569  0.91211616  1
  O  O136  1  0.12734883  0.50844499  0.16197918  1
  O  O137  1  0.12392948  0.50212292  0.40445696  1
  O  O138  1  0.12231420  0.50052473  0.66582055  1
  O  O139  1  0.12794852  0.50355958  0.91863466  1
  O  O140  1  0.12849783  0.75377265  0.16399356  1
  O  O141  1  0.12312175  0.76071222  0.41839781  1
  O  O142  1  0.12018622  0.75020656  0.66526666  1
  O  O143  1  0.12531345  0.74720559  0.91605418  1
  O  O144  1  0.37084347  -0.00978248  0.16491433  1
  O  O145  1  0.37535084  -0.00967336  0.41596443  1
  O  O146  1  0.37078876  0.00066924  0.66497138  1
  O  O147  1  0.36963854  0.00427896  0.90951725  1
  O  O148  1  0.37674598  0.25281776  0.16264009  1
  O  O149  1  0.37779778  0.24962645  0.41015322  1
  O  O150  1  0.37372783  0.25611707  0.66473207  1
  O  O151  1  0.37081344  0.24416389  0.91127903  1
  O  O152  1  0.37655476  0.49598127  0.16169442  1
  O  O153  1  0.37890316  0.50137202  0.41174061  1
  O  O154  1  0.37463613  0.50215636  0.66952155  1
  O  O155  1  0.36854961  0.50680653  0.91413688  1
  O  O156  1  0.37015206  0.75939146  0.16231373  1
  O  O157  1  0.37503394  0.75851362  0.41693819  1
  O  O158  1  0.37355587  0.74020943  0.66802106  1
  O  O159  1  0.36726275  0.74389441  0.91241763  1
  O  O160  1  0.62355564  0.00111268  0.15888398  1
  O  O161  1  0.62395007  -0.01052555  0.41776460  1
  O  O162  1  0.63026482  0.00078820  0.66678451  1
  O  O163  1  0.62159626  0.00752164  0.91118139  1
  O  O164  1  0.62279605  0.24026844  0.15554719  1
  O  O165  1  0.62522501  0.25562960  0.41044900  1
  O  O166  1  0.62648707  0.25850078  0.66491777  1
  O  O167  1  0.61867891  0.23821764  0.91286315  1
  O  O168  1  0.62253708  0.50922118  0.15302696  1
  O  O169  1  0.62499302  0.49528978  0.40986669  1
  O  O170  1  0.62827221  0.49922879  0.67143946  1
  O  O171  1  0.62092982  0.50278551  0.91553339  1
  O  O172  1  0.62327587  0.74862422  0.15729717  1
  O  O173  1  0.62494806  0.75934143  0.41853889  1
  O  O174  1  0.62943224  0.74149166  0.66890503  1
  O  O175  1  0.62342975  0.74960202  0.91109427  1
  O  O176  1  0.87975614  -0.01090369  0.16201422  1
  O  O177  1  0.87214294  -0.00996736  0.41635777  1
  O  O178  1  0.87798380  -0.00395002  0.66683007  1
  O  O179  1  0.88115285  -0.00739450  0.91341241  1
  O  O180  1  0.87421213  0.24449739  0.15854080  1
  O  O181  1  0.87168596  0.24908202  0.40770831  1
  O  O182  1  0.87644666  0.25156782  0.66916721  1
  O  O183  1  0.87917791  0.24916006  0.91831456  1
  O  O184  1  0.87472543  0.50459360  0.15739557  1
  O  O185  1  0.87135261  0.50106115  0.40739652  1
  O  O186  1  0.87601723  0.49926375  0.67044474  1
  O  O187  1  0.88080966  0.49882235  0.91558683  1
  O  O188  1  0.88027219  0.76001215  0.16087394  1
  O  O189  1  0.87128087  0.76025321  0.41683144  1
  O  O190  1  0.87973431  0.75264833  0.66782759  1
  O  O191  1  0.88200640  0.75839571  0.91481389  1
  O  O192  1  0.00745434  0.11736449  0.15961734  1
  O  O193  1  -0.00239772  0.11806330  0.41254748  1
  O  O194  1  -0.00106888  0.12485614  0.66976350  1
  O  O195  1  0.00613010  0.12399139  0.91764620  1
  O  O196  1  0.00068478  0.37463978  0.16162520  1
  O  O197  1  -0.00162988  0.37521289  0.40308479  1
  O  O198  1  -0.00017610  0.37606904  0.66623752  1
  O  O199  1  0.01100441  0.37657165  0.91723065  1
  O  O200  1  0.00706096  0.63186660  0.16097510  1
  O  O201  1  -0.00277141  0.63223886  0.41080304  1
  O  O202  1  -0.00015509  0.62387903  0.66963823  1
  O  O203  1  0.01021035  0.62537503  0.91961149  1
  O  O204  1  0.00946879  0.87488009  0.16346321  1
  O  O205  1  -0.00362436  0.87475264  0.41082948  1
  O  O206  1  0.00021295  0.87425503  0.67007258  1
  O  O207  1  0.00498548  0.87288181  0.91569499  1
  O  O208  1  0.24578370  0.12033895  0.16600181  1
  O  O209  1  0.25074430  0.11816652  0.41163671  1
  O  O210  1  0.24510872  0.12659470  0.66404519  1
  O  O211  1  0.25284978  0.12414255  0.91419671  1
  O  O212  1  0.25841585  0.37448886  0.16572295  1
  O  O213  1  0.25042133  0.37564390  0.40741595  1
  O  O214  1  0.24667129  0.37806647  0.66460881  1
  O  O215  1  0.24655477  0.37837078  0.91989061  1
  O  O216  1  0.24633348  0.62859135  0.16633705  1
  O  O217  1  0.25155328  0.63154800  0.41068493  1
  O  O218  1  0.24695888  0.62317570  0.66409131  1
  O  O219  1  0.24495252  0.62551417  0.91941059  1
  O  O220  1  0.24596781  0.87531062  0.16771052  1
  O  O221  1  0.24931895  0.87414544  0.41163769  1
  O  O222  1  0.23819183  0.87096174  0.66496338  1
  O  O223  1  0.24228255  0.87063424  0.91244218  1
  O  O224  1  0.50454768  0.12020022  0.16100860  1
  O  O225  1  0.50076772  0.11931388  0.41779111  1
  O  O226  1  0.50151893  0.12791818  0.66588013  1
  O  O227  1  0.49368053  0.12272617  0.90808273  1
  O  O228  1  0.49700037  0.37439841  0.16159635  1
  O  O229  1  0.50803035  0.37501256  0.41248653  1
  O  O230  1  0.50406389  0.37919848  0.66635293  1
  O  O231  1  0.49226015  0.37372882  0.91685704  1
  O  O232  1  0.50396154  0.62944193  0.15924966  1
  O  O233  1  0.50207630  0.63049951  0.41971737  1
  O  O234  1  0.50356143  0.62115346  0.66473515  1
  O  O235  1  0.49105093  0.62660837  0.90597717  1
  O  O236  1  0.49331650  0.87463533  0.15224177  1
  O  O237  1  0.49990823  0.87315716  0.41280388  1
  O  O238  1  0.50071848  0.87063074  0.66646086  1
  O  O239  1  0.49364216  0.87513545  0.90802587  1
  O  O240  1  0.74363366  0.11844799  0.15765818  1
  O  O241  1  0.74965752  0.11976265  0.41760164  1
  O  O242  1  0.75567210  0.12738359  0.66769971  1
  O  O243  1  0.74476488  0.12163695  0.90750895  1
  O  O244  1  0.74408892  0.37453106  0.15783710  1
  O  O245  1  0.74265213  0.37529509  0.41001711  1
  O  O246  1  0.74857865  0.37694472  0.66814074  1
  O  O247  1  0.74892047  0.37200779  0.91252422  1
  O  O248  1  0.74393950  0.63121190  0.15487223  1
  O  O249  1  0.74744684  0.62989654  0.41845225  1
  O  O250  1  0.75236333  0.62289033  0.67070398  1
  O  O251  1  0.75201455  0.62778759  0.91112483  1
  O  O252  1  0.75418548  0.87455706  0.14872648  1
  O  O253  1  0.74836850  0.87493432  0.41320354  1
  O  O254  1  0.76097918  0.87226740  0.66868838  1
  O  O255  1  0.75967116  0.87669989  0.90833708  1
  O  O256  1  0.13095868  0.12075283  0.04953563  1
  O  O257  1  0.12369904  0.11377376  0.28222871  1
  O  O258  1  0.11879799  0.12359788  0.55184958  1
  O  O259  1  0.12390819  0.12331916  0.78354116  1
  O  O260  1  0.13596793  0.37378480  0.04266301  1
  O  O261  1  0.13199942  0.37342584  0.27192657  1
  O  O262  1  0.12219589  0.37712334  0.54609599  1
  O  O263  1  0.12826249  0.37980697  0.80344875  1
  O  O264  1  0.12959501  0.62812065  0.05167146  1
  O  O265  1  0.12485512  0.63758007  0.28097444  1
  O  O266  1  0.12091956  0.62567676  0.54771014  1
  O  O267  1  0.12567480  0.62317395  0.80287692  1
  O  O268  1  0.12910651  0.87720403  0.04942008  1
  O  O269  1  0.12807504  0.87580335  0.29960813  1
  O  O270  1  0.11886174  0.87326053  0.55153155  1
  O  O271  1  0.12410030  0.87188776  0.79857573  1
  O  O272  1  0.37031746  0.11582531  0.04078992  1
  O  O273  1  0.38408609  0.11930334  0.28162309  1
  O  O274  1  0.37633170  0.12109483  0.53582797  1
  O  O275  1  0.36919666  0.12724459  0.79607211  1
  O  O276  1  0.37367673  0.37318718  0.04917055  1
  O  O277  1  0.37843879  0.37531510  0.28071314  1
  O  O278  1  0.37601888  0.37921785  0.55165949  1
  O  O279  1  0.37127418  0.37807281  0.78431343  1
  O  O280  1  0.36825429  0.62887124  0.03819578  1
  O  O281  1  0.38601306  0.62974927  0.28159294  1
  O  O282  1  0.37474495  0.62371266  0.54881546  1
  O  O283  1  0.36553318  0.62351938  0.79975102  1
  O  O284  1  0.36824415  0.87700253  0.04498147  1
  O  O285  1  0.38029106  0.87474903  0.30010825  1
  O  O286  1  0.37166902  0.86819813  0.54246332  1
  O  O287  1  0.36654672  0.86698137  0.78020711  1
  O  O288  1  0.62329838  0.11880939  0.04248547  1
  O  O289  1  0.62595954  0.11235983  0.28864331  1
  O  O290  1  0.62675050  0.12149546  0.53644186  1
  O  O291  1  0.62667825  0.12589866  0.79443137  1
  O  O292  1  0.61572722  0.37013583  0.02771148  1
  O  O293  1  0.62334549  0.37499706  0.29301907  1
  O  O294  1  0.62815372  0.37900818  0.55445167  1
  O  O295  1  0.61711156  0.37761718  0.79129721  1
  O  O296  1  0.62151679  0.63162908  0.04094742  1
  O  O297  1  0.62564169  0.63750820  0.28554747  1
  O  O298  1  0.62791073  0.62190352  0.55853772  1
  O  O299  1  0.63081451  0.62063846  0.78198613  1
  O  O300  1  0.62169578  0.87601710  0.02572123  1
  O  O301  1  0.62727522  0.87433865  0.29982277  1
  O  O302  1  0.62943616  0.86860239  0.54373067  1
  O  O303  1  0.62876161  0.87209064  0.78574341  1
  O  O304  1  0.87611056  0.11340968  0.03391531  1
  O  O305  1  0.86878812  0.11470743  0.27978014  1
  O  O306  1  0.87776977  0.12490952  0.55304199  1
  O  O307  1  0.88307357  0.12965747  0.78929062  1
  O  O308  1  0.87725768  0.37038439  0.03395978  1
  O  O309  1  0.87138257  0.37513527  0.27435826  1
  O  O310  1  0.87466043  0.37545107  0.55231811  1
  O  O311  1  0.88020185  0.36762487  0.78828046  1
  O  O312  1  0.88191661  0.63341498  0.03199632  1
  O  O313  1  0.86742127  0.63558813  0.28017721  1
  O  O314  1  0.87420933  0.62443473  0.55445089  1
  O  O315  1  0.88621961  0.62606615  0.79121233  1
  O  O316  1  0.87949254  0.87546660  0.04328335  1
  O  O317  1  0.87308876  0.87541013  0.29749280  1
  O  O318  1  0.87719261  0.87464630  0.55408842  1
  O  O319  1  0.88082285  0.87312365  0.79726403  1
