# generated using pymatgen
data_VFe(PbO3)2
_symmetry_space_group_name_H-M   'P 1'
_cell_length_a   15.40952974
_cell_length_b   15.41471193
_cell_length_c   18.47071721
_cell_angle_alpha   89.97851254
_cell_angle_beta   89.97252276
_cell_angle_gamma   89.96915077
_symmetry_Int_Tables_number   1
_chemical_formula_structural   VFe(PbO3)2
_chemical_formula_sum   'V32 Fe32 Pb64 O192'
_cell_volume   4387.41195387
_cell_formula_units_Z   32
loop_
 _symmetry_equiv_pos_site_id
 _symmetry_equiv_pos_as_xyz
  1  'x, y, z'
loop_
 _atom_site_type_symbol
 _atom_site_label
 _atom_site_symmetry_multiplicity
 _atom_site_fract_x
 _atom_site_fract_y
 _atom_site_fract_z
 _atom_site_occupancy
  V  V0  1  0.37398140  0.62286878  0.89250865  1
  V  V1  1  0.37175494  0.12683655  0.14206654  1
  V  V2  1  0.12557255  0.37505127  0.15522977  1
  V  V3  1  0.12210946  0.62633712  0.15304727  1
  V  V4  1  0.87656899  0.12008002  0.89014750  1
  V  V5  1  0.88123178  0.87292784  0.15120618  1
  V  V6  1  0.36963955  0.37409538  0.14449085  1
  V  V7  1  0.62581727  0.62356741  0.89632379  1
  V  V8  1  0.87428964  0.12369948  0.38736832  1
  V  V9  1  0.87353054  0.37441095  0.89320634  1
  V  V10  1  0.62256296  0.37062650  0.38277118  1
  V  V11  1  0.12354070  0.62365629  0.88975723  1
  V  V12  1  0.37200427  0.62556891  0.14576739  1
  V  V13  1  0.87757515  0.12346039  0.14680991  1
  V  V14  1  0.87564365  0.61552744  0.15976640  1
  V  V15  1  0.62367067  0.37387573  0.63768010  1
  V  V16  1  0.12301638  0.37593277  0.89011817  1
  V  V17  1  0.62347851  0.12034002  0.63715139  1
  V  V18  1  0.37928380  0.62795608  0.63499607  1
  V  V19  1  0.12785590  0.87617010  0.14458412  1
  V  V20  1  0.61926108  0.37350786  0.14397445  1
  V  V21  1  0.12374455  0.12548780  0.88832224  1
  V  V22  1  0.12548996  0.87822255  0.39176046  1
  V  V23  1  0.37898548  0.37630050  0.89466705  1
  V  V24  1  0.87026735  0.62532001  0.62896470  1
  V  V25  1  0.12225393  0.12503667  0.14906349  1
  V  V26  1  0.87400686  0.86994077  0.89083908  1
  V  V27  1  0.37615675  0.37663164  0.63482171  1
  V  V28  1  0.87728597  0.36934899  0.15290625  1
  V  V29  1  0.37597156  0.87394146  0.38287473  1
  V  V30  1  0.87453323  0.62316269  0.89191798  1
  V  V31  1  0.37557719  0.37551122  0.38289208  1
  Fe  Fe32  1  0.12770937  0.37367595  0.39081252  1
  Fe  Fe33  1  0.62366336  0.87724403  0.37450022  1
  Fe  Fe34  1  0.87074136  0.87498109  0.62533093  1
  Fe  Fe35  1  0.37765067  0.12332300  0.38994228  1
  Fe  Fe36  1  0.87594373  0.87509686  0.38439935  1
  Fe  Fe37  1  0.62230498  0.87545097  0.14526470  1
  Fe  Fe38  1  0.62294018  0.62505696  0.37341536  1
  Fe  Fe39  1  0.12060173  0.87032604  0.88456500  1
  Fe  Fe40  1  0.87516802  0.62720708  0.37528566  1
  Fe  Fe41  1  0.12702746  0.12263001  0.39765137  1
  Fe  Fe42  1  0.87031481  0.37591273  0.62115711  1
  Fe  Fe43  1  0.62818602  0.87435002  0.89139361  1
  Fe  Fe44  1  0.37306393  0.87495041  0.88870516  1
  Fe  Fe45  1  0.12509402  0.37706878  0.62125194  1
  Fe  Fe46  1  0.37645004  0.62680234  0.37934575  1
  Fe  Fe47  1  0.87038708  0.12539960  0.62832989  1
  Fe  Fe48  1  0.37793062  0.87508044  0.63089072  1
  Fe  Fe49  1  0.62210861  0.62332714  0.63114701  1
  Fe  Fe50  1  0.62229206  0.87056822  0.63111171  1
  Fe  Fe51  1  0.36905188  0.87767316  0.13710037  1
  Fe  Fe52  1  0.12610220  0.62351780  0.62593938  1
  Fe  Fe53  1  0.62446110  0.12379059  0.37523328  1
  Fe  Fe54  1  0.62595933  0.12794862  0.88809183  1
  Fe  Fe55  1  0.62711564  0.12810832  0.14947828  1
  Fe  Fe56  1  0.62650286  0.62121913  0.15130377  1
  Fe  Fe57  1  0.37362319  0.13000497  0.88440910  1
  Fe  Fe58  1  0.12609171  0.87266579  0.62710830  1
  Fe  Fe59  1  0.37850030  0.12791074  0.63223358  1
  Fe  Fe60  1  0.12545896  0.12671735  0.62300881  1
  Fe  Fe61  1  0.62799759  0.37736721  0.89018809  1
  Fe  Fe62  1  0.12937844  0.62764137  0.38669470  1
  Fe  Fe63  1  0.87281657  0.37445902  0.39103142  1
  Pb  Pb64  1  -0.00252677  -0.00220701  0.00075168  1
  Pb  Pb65  1  0.00148898  -0.00114075  0.26221198  1
  Pb  Pb66  1  -0.01190983  -0.00026091  0.50352752  1
  Pb  Pb67  1  0.00227040  -0.00124098  0.73199368  1
  Pb  Pb68  1  -0.00115986  0.25243908  0.00346525  1
  Pb  Pb69  1  0.01100210  0.25387535  0.26818054  1
  Pb  Pb70  1  0.00758960  0.25168070  0.49532614  1
  Pb  Pb71  1  -0.00267532  0.25291957  0.72830100  1
  Pb  Pb72  1  -0.00165571  0.50051361  0.00537075  1
  Pb  Pb73  1  0.01180926  0.49419084  0.26991962  1
  Pb  Pb74  1  0.00329624  0.50010023  0.48641665  1
  Pb  Pb75  1  -0.00225859  0.49869079  0.73278166  1
  Pb  Pb76  1  -0.00336514  0.74683228  0.00373291  1
  Pb  Pb77  1  -0.00492185  0.75081698  0.26312562  1
  Pb  Pb78  1  0.00400299  0.74841515  0.49232768  1
  Pb  Pb79  1  0.00465858  0.75485376  0.73758454  1
  Pb  Pb80  1  0.25661254  -0.00801319  -0.00215325  1
  Pb  Pb81  1  0.24961076  0.01205662  0.26027855  1
  Pb  Pb82  1  0.25620609  -0.00791157  0.50249107  1
  Pb  Pb83  1  0.25228646  -0.00080502  0.73719485  1
  Pb  Pb84  1  0.24769108  0.25342313  0.00210803  1
  Pb  Pb85  1  0.24569803  0.24180242  0.26510334  1
  Pb  Pb86  1  0.25141983  0.23793182  0.49852108  1
  Pb  Pb87  1  0.25073243  0.24469108  0.73971173  1
  Pb  Pb88  1  0.24704931  0.50084176  0.00425068  1
  Pb  Pb89  1  0.24703875  0.50434793  0.26137003  1
  Pb  Pb90  1  0.24297799  0.50482980  0.49389288  1
  Pb  Pb91  1  0.24832612  0.50095193  0.74089089  1
  Pb  Pb92  1  0.25266990  0.75510432  0.00083369  1
  Pb  Pb93  1  0.24911302  0.74221421  0.25676347  1
  Pb  Pb94  1  0.25177068  0.75438162  0.49838604  1
  Pb  Pb95  1  0.24509686  0.76241779  0.74645205  1
  Pb  Pb96  1  0.49666108  -0.00155975  -0.00454958  1
  Pb  Pb97  1  0.50620459  -0.00062612  0.24680937  1
  Pb  Pb98  1  0.50246666  -0.00872547  0.49323549  1
  Pb  Pb99  1  0.48783449  -0.00690341  0.75106887  1
  Pb  Pb100  1  0.50982381  0.24002041  0.00434827  1
  Pb  Pb101  1  0.49277777  0.23801919  0.25655203  1
  Pb  Pb102  1  0.49924122  0.24032786  0.49622733  1
  Pb  Pb103  1  0.50366076  0.24076838  0.75568329  1
  Pb  Pb104  1  0.50766925  0.51081077  0.01066987  1
  Pb  Pb105  1  0.49606132  0.50584040  0.25372008  1
  Pb  Pb106  1  0.50656752  0.50850978  0.49184007  1
  Pb  Pb107  1  0.50461788  0.49500570  0.75028407  1
  Pb  Pb108  1  0.50143737  0.76167069  0.00527259  1
  Pb  Pb109  1  0.50687666  0.75279154  0.24686444  1
  Pb  Pb110  1  0.51252942  0.75054887  0.49210700  1
  Pb  Pb111  1  0.50375119  0.76172112  0.75201889  1
  Pb  Pb112  1  0.72716869  -0.00202620  0.01379226  1
  Pb  Pb113  1  0.74712416  -0.00722103  0.25436138  1
  Pb  Pb114  1  0.74911181  -0.00551772  0.49146585  1
  Pb  Pb115  1  0.74584317  -0.00494416  0.74313327  1
  Pb  Pb116  1  0.74471617  0.24532989  0.00783095  1
  Pb  Pb117  1  0.75575938  0.25251863  0.25810120  1
  Pb  Pb118  1  0.75724215  0.24738706  0.49715569  1
  Pb  Pb119  1  0.74373409  0.25049081  0.74850079  1
  Pb  Pb120  1  0.74663134  0.50746014  0.01135871  1
  Pb  Pb121  1  0.75487250  0.48823615  0.26257620  1
  Pb  Pb122  1  0.75111750  0.50607053  0.48705437  1
  Pb  Pb123  1  0.74639206  0.49663700  0.74489464  1
  Pb  Pb124  1  0.73892737  0.75159941  0.01284108  1
  Pb  Pb125  1  0.74497290  0.74973823  0.25459782  1
  Pb  Pb126  1  0.74629335  0.75420722  0.48276823  1
  Pb  Pb127  1  0.74217632  0.75445015  0.74303807  1
  O  O128  1  0.12693371  0.00525585  0.16880515  1
  O  O129  1  0.12905660  -0.00698234  0.41506035  1
  O  O130  1  0.12622925  0.00041153  0.65347869  1
  O  O131  1  0.11691564  0.01039394  0.90892183  1
  O  O132  1  0.12340194  0.24564380  0.17373125  1
  O  O133  1  0.12543181  0.25010233  0.40998670  1
  O  O134  1  0.12595829  0.25447349  0.65418369  1
  O  O135  1  0.11875530  0.25156160  0.91944381  1
  O  O136  1  0.12364377  0.50187365  0.17401717  1
  O  O137  1  0.12903916  0.50032846  0.40600917  1
  O  O138  1  0.12718532  0.50054349  0.65971035  1
  O  O139  1  0.12188785  0.49949380  0.92167648  1
  O  O140  1  0.12679751  0.74779948  0.16844166  1
  O  O141  1  0.12898150  0.75697585  0.40919008  1
  O  O142  1  0.12695022  0.74441205  0.66020832  1
  O  O143  1  0.12132004  0.74267881  0.91801822  1
  O  O144  1  0.36724821  0.01072107  0.16020078  1
  O  O145  1  0.37382636  -0.00770968  0.40862505  1
  O  O146  1  0.37892067  0.00281052  0.66035358  1
  O  O147  1  0.37095272  0.00450308  0.91426689  1
  O  O148  1  0.37040471  0.25007881  0.16979161  1
  O  O149  1  0.38087928  0.25987578  0.41130386  1
  O  O150  1  0.37978351  0.26145744  0.66115502  1
  O  O151  1  0.36810369  0.25965600  0.91962660  1
  O  O152  1  0.37147689  0.49569324  0.16843992  1
  O  O153  1  0.38206956  0.49147777  0.40659531  1
  O  O154  1  0.37905093  0.49430655  0.66531277  1
  O  O155  1  0.37027637  0.49547411  0.92349008  1
  O  O156  1  0.36758107  0.74200128  0.15923650  1
  O  O157  1  0.37448645  0.75693957  0.40442955  1
  O  O158  1  0.37785019  0.74132944  0.65498151  1
  O  O159  1  0.37258775  0.74250659  0.91843633  1
  O  O160  1  0.62675275  0.00242085  0.16225110  1
  O  O161  1  0.62253325  0.00039536  0.40173109  1
  O  O162  1  0.62316710  0.00565085  0.65624265  1
  O  O163  1  0.62909179  0.00232048  0.91743755  1
  O  O164  1  0.62800812  0.25900854  0.16804081  1
  O  O165  1  0.62508788  0.25338591  0.40603845  1
  O  O166  1  0.62500953  0.25613858  0.66135607  1
  O  O167  1  0.63018259  0.25385183  0.92300263  1
  O  O168  1  0.62885541  0.48821971  0.17055347  1
  O  O169  1  0.62249798  0.49303086  0.40301081  1
  O  O170  1  0.62298882  0.49565493  0.66444060  1
  O  O171  1  0.62668044  0.50113006  0.92561527  1
  O  O172  1  0.62734800  0.74864299  0.16281071  1
  O  O173  1  0.62056555  0.75153412  0.39947441  1
  O  O174  1  0.62203544  0.74486998  0.66386983  1
  O  O175  1  0.62741874  0.74418121  0.92450633  1
  O  O176  1  0.88446074  0.00519888  0.17034450  1
  O  O177  1  0.87529904  0.00440876  0.40962538  1
  O  O178  1  0.86981333  0.00025314  0.66232184  1
  O  O179  1  0.88336536  0.00467299  0.90928836  1
  O  O180  1  0.88177482  0.24380549  0.17243823  1
  O  O181  1  0.87142473  0.24292082  0.40953739  1
  O  O182  1  0.86822117  0.25256700  0.65589202  1
  O  O183  1  0.88021711  0.25704374  0.91652465  1
  O  O184  1  0.87941682  0.49911902  0.17388552  1
  O  O185  1  0.87053107  0.50264658  0.40281356  1
  O  O186  1  0.87112935  0.50424264  0.65663010  1
  O  O187  1  0.87872689  0.49775798  0.92164025  1
  O  O188  1  0.88504202  0.75751189  0.16639376  1
  O  O189  1  0.87720785  0.75027358  0.40600753  1
  O  O190  1  0.87126894  0.74138695  0.65314894  1
  O  O191  1  0.87713614  0.74649507  0.92135745  1
  O  O192  1  0.00429847  0.12541723  0.17363968  1
  O  O193  1  -0.00737738  0.12366569  0.41063250  1
  O  O194  1  -0.00136198  0.12625148  0.65431456  1
  O  O195  1  -0.00238187  0.13156004  0.92056495  1
  O  O196  1  0.00028344  0.37381058  0.17812024  1
  O  O197  1  -0.00155299  0.37506058  0.40530856  1
  O  O198  1  -0.00309043  0.37870497  0.64932564  1
  O  O199  1  -0.00149557  0.37773919  0.92186610  1
  O  O200  1  0.00600258  0.62533637  0.17487760  1
  O  O201  1  0.00147906  0.62620943  0.40255166  1
  O  O202  1  -0.00840981  0.62218084  0.65309640  1
  O  O203  1  -0.00129918  0.62193933  0.92241307  1
  O  O204  1  0.00702879  0.87893279  0.17539802  1
  O  O205  1  0.00701673  0.87689542  0.40971739  1
  O  O206  1  -0.00303608  0.87158797  0.65409190  1
  O  O207  1  -0.00450699  0.87390655  0.92182337  1
  O  O208  1  0.24660542  0.12991100  0.16997426  1
  O  O209  1  0.25506383  0.12505466  0.41559938  1
  O  O210  1  0.25173782  0.13038323  0.65671636  1
  O  O211  1  0.23837985  0.13261040  0.91144825  1
  O  O212  1  0.24869885  0.37350711  0.17258474  1
  O  O213  1  0.26101759  0.37532416  0.40153390  1
  O  O214  1  0.25831840  0.37784213  0.65521689  1
  O  O215  1  0.24506517  0.37655758  0.92074369  1
  O  O216  1  0.24808622  0.61993743  0.16873999  1
  O  O217  1  0.25587980  0.62535052  0.41124158  1
  O  O218  1  0.26139584  0.61764519  0.65870643  1
  O  O219  1  0.24745602  0.61989817  0.91902472  1
  O  O220  1  0.24413275  0.87606965  0.16956078  1
  O  O221  1  0.25252313  0.87495866  0.41090488  1
  O  O222  1  0.25252888  0.87256347  0.66074455  1
  O  O223  1  0.24371239  0.87397556  0.91587765  1
  O  O224  1  0.48984024  0.13062736  0.15876903  1
  O  O225  1  0.50283956  0.12726355  0.41060839  1
  O  O226  1  0.50813109  0.13321272  0.66332160  1
  O  O227  1  0.49846432  0.13048305  0.91673585  1
  O  O228  1  0.50127109  0.37454315  0.16094492  1
  O  O229  1  0.50474388  0.37305367  0.40980850  1
  O  O230  1  0.50230810  0.37744428  0.66394502  1
  O  O231  1  0.49336863  0.37635746  0.91476400  1
  O  O232  1  0.49046427  0.61873282  0.16043559  1
  O  O233  1  0.49957489  0.62274458  0.40550247  1
  O  O234  1  0.49308520  0.61733457  0.66546700  1
  O  O235  1  0.49893373  0.62101019  0.92219880  1
  O  O236  1  0.49243665  0.87500347  0.15993982  1
  O  O237  1  0.49373617  0.87633346  0.40120348  1
  O  O238  1  0.50052992  0.87386079  0.66671997  1
  O  O239  1  0.50028855  0.87306878  0.91793740  1
  O  O240  1  0.76255723  0.12533389  0.16540284  1
  O  O241  1  0.75274464  0.12373170  0.40498345  1
  O  O242  1  0.73951878  0.12891978  0.66289717  1
  O  O243  1  0.76421446  0.13027089  0.91712295  1
  O  O244  1  0.75290780  0.37283701  0.17120603  1
  O  O245  1  0.73859228  0.37378068  0.40979367  1
  O  O246  1  0.74233957  0.37842443  0.65949506  1
  O  O247  1  0.75971269  0.37843389  0.91816407  1
  O  O248  1  0.75996353  0.62607022  0.16577866  1
  O  O249  1  0.74746746  0.62588383  0.39756739  1
  O  O250  1  0.75311728  0.62132144  0.65774383  1
  O  O251  1  0.75261364  0.62142889  0.92316526  1
  O  O252  1  0.76341549  0.87896618  0.16451759  1
  O  O253  1  0.74900118  0.87639663  0.40036941  1
  O  O254  1  0.74738857  0.87355906  0.66157373  1
  O  O255  1  0.75910820  0.87462823  0.92322894  1
  O  O256  1  0.12095099  0.12697236  0.05820494  1
  O  O257  1  0.13279016  0.12229956  0.29353163  1
  O  O258  1  0.12534038  0.13162511  0.52168252  1
  O  O259  1  0.11994543  0.13180938  0.79802481  1
  O  O260  1  0.12201058  0.37397327  0.06351767  1
  O  O261  1  0.12285364  0.37348059  0.28503813  1
  O  O262  1  0.12726645  0.38152039  0.52054197  1
  O  O263  1  0.12279333  0.37615956  0.79951063  1
  O  O264  1  0.12223414  0.62264664  0.06162566  1
  O  O265  1  0.13675616  0.62581830  0.28341568  1
  O  O266  1  0.12913937  0.62354551  0.52557575  1
  O  O267  1  0.12209936  0.62137171  0.79898659  1
  O  O268  1  0.12248917  0.87696630  0.05312683  1
  O  O269  1  0.12875113  0.88025736  0.29958779  1
  O  O270  1  0.13370084  0.86662681  0.52710789  1
  O  O271  1  0.12112168  0.86225227  0.78547062  1
  O  O272  1  0.36368799  0.13380359  0.05098896  1
  O  O273  1  0.37267250  0.12975593  0.28738856  1
  O  O274  1  0.38162803  0.13402120  0.53149436  1
  O  O275  1  0.37647470  0.13699666  0.78477282  1
  O  O276  1  0.36692209  0.37224177  0.05344597  1
  O  O277  1  0.38261821  0.37308061  0.29082836  1
  O  O278  1  0.38089662  0.37890677  0.54431897  1
  O  O279  1  0.37338017  0.37790538  0.80394606  1
  O  O280  1  0.36576559  0.61649351  0.05433374  1
  O  O281  1  0.37135377  0.62141694  0.27806240  1
  O  O282  1  0.38279286  0.62147459  0.54355648  1
  O  O283  1  0.37488924  0.61930179  0.80212530  1
  O  O284  1  0.36299343  0.87717711  0.03595392  1
  O  O285  1  0.37020565  0.87645888  0.29125578  1
  O  O286  1  0.37586413  0.87732004  0.53067260  1
  O  O287  1  0.37825897  0.87525267  0.78825839  1
  O  O288  1  0.63208530  0.13495259  0.04640349  1
  O  O289  1  0.61836543  0.12669223  0.27253906  1
  O  O290  1  0.62311477  0.12598480  0.54584265  1
  O  O291  1  0.62793296  0.13775962  0.78849145  1
  O  O292  1  0.62771710  0.37510763  0.05199345  1
  O  O293  1  0.62411077  0.37096904  0.29091026  1
  O  O294  1  0.62211524  0.37457071  0.54703782  1
  O  O295  1  0.63045421  0.37960060  0.79083480  1
  O  O296  1  0.62905483  0.61246676  0.04856541  1
  O  O297  1  0.61898760  0.62458723  0.27033023  1
  O  O298  1  0.61635155  0.62482895  0.53139348  1
  O  O299  1  0.62622980  0.62188141  0.80525590  1
  O  O300  1  0.63330822  0.87365361  0.04161028  1
  O  O301  1  0.62343150  0.87666415  0.27069655  1
  O  O302  1  0.61599341  0.87125772  0.53038392  1
  O  O303  1  0.62857413  0.86417578  0.79156168  1
  O  O304  1  0.88398954  0.12479314  0.05558169  1
  O  O305  1  0.87656017  0.12303591  0.29529115  1
  O  O306  1  0.86554971  0.11874607  0.52852862  1
  O  O307  1  0.87711501  0.12751411  0.79986110  1
  O  O308  1  0.87762329  0.37217217  0.06134468  1
  O  O309  1  0.86261335  0.36922096  0.28737312  1
  O  O310  1  0.86292239  0.37489572  0.52060279  1
  O  O311  1  0.87514855  0.37694741  0.80241066  1
  O  O312  1  0.88690966  0.62192186  0.06777141  1
  O  O313  1  0.87903946  0.63474414  0.27135434  1
  O  O314  1  0.86869291  0.62298845  0.53773799  1
  O  O315  1  0.87431214  0.62269520  0.80145770  1
  O  O316  1  0.88975836  0.88055453  0.05992419  1
  O  O317  1  0.88377819  0.88051802  0.28203577  1
  O  O318  1  0.87080332  0.88314667  0.52448770  1
  O  O319  1  0.87307895  0.86908790  0.79994633  1
