# generated using pymatgen
data_VFe(PbO3)2
_symmetry_space_group_name_H-M   'P 1'
_cell_length_a   15.38689170
_cell_length_b   15.37360447
_cell_length_c   18.50168158
_cell_angle_alpha   90.00005806
_cell_angle_beta   89.98508887
_cell_angle_gamma   89.99652275
_symmetry_Int_Tables_number   1
_chemical_formula_structural   VFe(PbO3)2
_chemical_formula_sum   'V32 Fe32 Pb64 O192'
_cell_volume   4376.60938559
_cell_formula_units_Z   32
loop_
 _symmetry_equiv_pos_site_id
 _symmetry_equiv_pos_as_xyz
  1  'x, y, z'
loop_
 _atom_site_type_symbol
 _atom_site_label
 _atom_site_symmetry_multiplicity
 _atom_site_fract_x
 _atom_site_fract_y
 _atom_site_fract_z
 _atom_site_occupancy
  V  V0  1  0.62630402  0.62483568  0.14210392  1
  V  V1  1  0.37703571  0.38352582  0.63750609  1
  V  V2  1  0.62400933  0.87535888  0.89440823  1
  V  V3  1  0.12509253  0.37477786  0.13737626  1
  V  V4  1  0.88017645  0.37664406  0.39759104  1
  V  V5  1  0.38133262  0.37327405  0.13972353  1
  V  V6  1  0.87451019  0.87554494  0.63475729  1
  V  V7  1  0.37453060  0.37398754  0.88905926  1
  V  V8  1  0.12436910  0.12589714  0.88764157  1
  V  V9  1  0.87531713  0.12325341  0.39428186  1
  V  V10  1  0.87726235  0.62294989  0.13751309  1
  V  V11  1  0.12539932  0.37711030  0.39580376  1
  V  V12  1  0.87445458  0.12238644  0.88582939  1
  V  V13  1  0.62957133  0.12467018  0.89095868  1
  V  V14  1  0.87304618  0.87422472  0.88937227  1
  V  V15  1  0.12391602  0.62450129  0.39013457  1
  V  V16  1  0.37581437  0.88015118  0.63671952  1
  V  V17  1  0.37401495  0.63410080  0.63766336  1
  V  V18  1  0.37718853  0.37853565  0.38691674  1
  V  V19  1  0.62416771  0.12534454  0.14574988  1
  V  V20  1  0.63205551  0.37522786  0.39392514  1
  V  V21  1  0.87371795  0.12734812  0.14156030  1
  V  V22  1  0.87486301  0.62818178  0.39696510  1
  V  V23  1  0.12122906  0.87583439  0.38727138  1
  V  V24  1  0.62866597  0.62584389  0.89053151  1
  V  V25  1  0.62700348  0.87529339  0.38610317  1
  V  V26  1  0.37596392  0.87595724  0.13998108  1
  V  V27  1  0.12335758  0.12410382  0.14250495  1
  V  V28  1  0.62423649  0.12221459  0.63507189  1
  V  V29  1  0.62300438  0.37479990  0.89096686  1
  V  V30  1  0.87220686  0.62527837  0.88601698  1
  V  V31  1  0.37439894  0.12744127  0.63742279  1
  Fe  Fe32  1  0.61730472  0.37405065  0.63088228  1
  Fe  Fe33  1  0.12504836  0.37126240  0.88068943  1
  Fe  Fe34  1  0.62491747  0.87468634  0.13687631  1
  Fe  Fe35  1  0.12811823  0.87459598  0.63469493  1
  Fe  Fe36  1  0.62589746  0.12753216  0.38259227  1
  Fe  Fe37  1  0.87275398  0.37286651  0.63323104  1
  Fe  Fe38  1  0.62097958  0.87616044  0.63187488  1
  Fe  Fe39  1  0.37351748  0.12851203  0.14449207  1
  Fe  Fe40  1  0.37407696  0.12561072  0.37952656  1
  Fe  Fe41  1  0.12435672  0.12770728  0.39041036  1
  Fe  Fe42  1  0.12462836  0.62386963  0.12875625  1
  Fe  Fe43  1  0.87342535  0.87554941  0.14338584  1
  Fe  Fe44  1  0.37680145  0.62171031  0.13657891  1
  Fe  Fe45  1  0.87522336  0.37389890  0.13772975  1
  Fe  Fe46  1  0.62519691  0.62307912  0.39562649  1
  Fe  Fe47  1  0.12432616  0.62410797  0.88749188  1
  Fe  Fe48  1  0.37709523  0.12545818  0.88876808  1
  Fe  Fe49  1  0.87460854  0.62769632  0.63191889  1
  Fe  Fe50  1  0.62174850  0.62743291  0.62775684  1
  Fe  Fe51  1  0.87240219  0.37379321  0.88009785  1
  Fe  Fe52  1  0.37992062  0.62482800  0.88749205  1
  Fe  Fe53  1  0.62927438  0.37595900  0.13660782  1
  Fe  Fe54  1  0.37212207  0.62566062  0.38383977  1
  Fe  Fe55  1  0.87583889  0.12118203  0.63139181  1
  Fe  Fe56  1  0.37122321  0.87356640  0.38059667  1
  Fe  Fe57  1  0.12443997  0.87481436  0.13053671  1
  Fe  Fe58  1  0.87659397  0.87321504  0.38319070  1
  Fe  Fe59  1  0.13011908  0.37386672  0.63800677  1
  Fe  Fe60  1  0.37728299  0.87649211  0.88719651  1
  Fe  Fe61  1  0.12530379  0.87715819  0.89172372  1
  Fe  Fe62  1  0.12725772  0.12134387  0.62945501  1
  Fe  Fe63  1  0.12626644  0.62673452  0.63994822  1
  Pb  Pb64  1  -0.00231442  -0.00792829  0.00285380  1
  Pb  Pb65  1  0.00069366  -0.00351884  0.25192497  1
  Pb  Pb66  1  0.00459501  0.00449882  0.50183979  1
  Pb  Pb67  1  0.00822826  -0.00257456  0.74412569  1
  Pb  Pb68  1  -0.00681635  0.25580754  -0.00670586  1
  Pb  Pb69  1  0.00572357  0.24453178  0.25614476  1
  Pb  Pb70  1  -0.00331757  0.25067895  0.50831422  1
  Pb  Pb71  1  -0.00030247  0.25250591  0.73832854  1
  Pb  Pb72  1  0.00325199  0.49786859  -0.00883434  1
  Pb  Pb73  1  0.00235402  0.49781925  0.24790974  1
  Pb  Pb74  1  0.00072562  0.50723912  0.51150029  1
  Pb  Pb75  1  -0.00287303  0.49477756  0.74002932  1
  Pb  Pb76  1  0.00700731  0.75288895  -0.00060172  1
  Pb  Pb77  1  0.00081176  0.75530853  0.24515830  1
  Pb  Pb78  1  0.00699415  0.74827562  0.50538532  1
  Pb  Pb79  1  0.00818724  0.74745359  0.74849525  1
  Pb  Pb80  1  0.25188419  -0.00247060  -0.00119980  1
  Pb  Pb81  1  0.25538798  -0.00003522  0.25219178  1
  Pb  Pb82  1  0.24536877  0.00443633  0.49354504  1
  Pb  Pb83  1  0.24980794  -0.00954329  0.75309368  1
  Pb  Pb84  1  0.25780895  0.24468587  0.00234750  1
  Pb  Pb85  1  0.24512991  0.24448751  0.25533663  1
  Pb  Pb86  1  0.24372621  0.25180417  0.50042659  1
  Pb  Pb87  1  0.24421046  0.24845726  0.74861896  1
  Pb  Pb88  1  0.24626704  0.50963259  -0.00266724  1
  Pb  Pb89  1  0.25293604  0.50312849  0.24536554  1
  Pb  Pb90  1  0.24057475  0.50092164  0.50521023  1
  Pb  Pb91  1  0.23554397  0.50606805  0.75802125  1
  Pb  Pb92  1  0.24883105  0.74628534  -0.00648062  1
  Pb  Pb93  1  0.25152795  0.74713820  0.24155764  1
  Pb  Pb94  1  0.24178738  0.75226692  0.49839827  1
  Pb  Pb95  1  0.24000914  0.75136774  0.76029488  1
  Pb  Pb96  1  0.49689896  0.00357970  0.00330833  1
  Pb  Pb97  1  0.49203549  -0.00029353  0.25379265  1
  Pb  Pb98  1  0.49874020  0.00059081  0.48850513  1
  Pb  Pb99  1  0.48971867  -0.00090149  0.75445113  1
  Pb  Pb100  1  0.50007688  0.24577166  0.00523888  1
  Pb  Pb101  1  0.50359748  0.24499957  0.25406269  1
  Pb  Pb102  1  0.50163018  0.25379946  0.49639918  1
  Pb  Pb103  1  0.49464913  0.24085916  0.75085187  1
  Pb  Pb104  1  0.49928474  0.50237159  0.00366371  1
  Pb  Pb105  1  0.50648552  0.51631072  0.26124702  1
  Pb  Pb106  1  0.50461903  0.50231218  0.50042622  1
  Pb  Pb107  1  0.49733400  0.50815488  0.74782079  1
  Pb  Pb108  1  0.49455041  0.74678951  0.00247711  1
  Pb  Pb109  1  0.49196512  0.74875303  0.25354447  1
  Pb  Pb110  1  0.50010677  0.74862363  0.49310438  1
  Pb  Pb111  1  0.49119180  0.75145514  0.75141312  1
  Pb  Pb112  1  0.75086449  -0.00837540  0.00725167  1
  Pb  Pb113  1  0.74979958  -0.00316483  0.25342158  1
  Pb  Pb114  1  0.74888690  -0.00187020  0.49796762  1
  Pb  Pb115  1  0.74840379  -0.00234037  0.74511358  1
  Pb  Pb116  1  0.75058946  0.25840947  0.00218090  1
  Pb  Pb117  1  0.74788806  0.25075629  0.25413447  1
  Pb  Pb118  1  0.75857573  0.25016847  0.50649627  1
  Pb  Pb119  1  0.75589902  0.25765984  0.74478198  1
  Pb  Pb120  1  0.75067015  0.48993190  0.00143879  1
  Pb  Pb121  1  0.74668351  0.50270974  0.25378234  1
  Pb  Pb122  1  0.76065789  0.50043053  0.50936398  1
  Pb  Pb123  1  0.74819354  0.49679959  0.73647747  1
  Pb  Pb124  1  0.75150722  0.75864316  0.00639402  1
  Pb  Pb125  1  0.75032214  0.75165370  0.25253441  1
  Pb  Pb126  1  0.74003501  0.75215939  0.50323839  1
  Pb  Pb127  1  0.74326108  0.74759635  0.74040618  1
  O  O128  1  0.12345358  0.00661869  0.16212429  1
  O  O129  1  0.12103978  -0.00533900  0.40764363  1
  O  O130  1  0.12937492  -0.00184924  0.66515291  1
  O  O131  1  0.12155818  0.01030921  0.91568563  1
  O  O132  1  0.12221335  0.24908897  0.16841495  1
  O  O133  1  0.12361383  0.25846423  0.41556840  1
  O  O134  1  0.13357489  0.24576612  0.66047778  1
  O  O135  1  0.12363097  0.24305913  0.91372969  1
  O  O136  1  0.12202924  0.49587354  0.16248276  1
  O  O137  1  0.12367863  0.49891747  0.41963874  1
  O  O138  1  0.13141400  0.50043552  0.66447908  1
  O  O139  1  0.12433016  0.49585494  0.91059243  1
  O  O140  1  0.12408503  0.74915093  0.15841805  1
  O  O141  1  0.12071883  0.75035114  0.41282220  1
  O  O142  1  0.12996732  0.75241736  0.66915977  1
  O  O143  1  0.12199860  0.74973590  0.91355379  1
  O  O144  1  0.37509443  -0.00257328  0.16353977  1
  O  O145  1  0.37440830  -0.00132312  0.40836778  1
  O  O146  1  0.37786236  -0.00121419  0.66041905  1
  O  O147  1  0.37972650  0.00277891  0.92026911  1
  O  O148  1  0.37083346  0.25866109  0.16955108  1
  O  O149  1  0.37156017  0.26118264  0.41055885  1
  O  O150  1  0.37765305  0.24304171  0.65955182  1
  O  O151  1  0.37993569  0.25386119  0.91815628  1
  O  O152  1  0.37335605  0.48945172  0.16331294  1
  O  O153  1  0.37050545  0.49334141  0.41546913  1
  O  O154  1  0.38105486  0.49909420  0.65378717  1
  O  O155  1  0.38244530  0.49024745  0.91297277  1
  O  O156  1  0.37725779  0.75428799  0.16052766  1
  O  O157  1  0.37287133  0.75079866  0.41136843  1
  O  O158  1  0.37749259  0.75136985  0.65764104  1
  O  O159  1  0.38121459  0.75052370  0.91642977  1
  O  O160  1  0.62700534  0.00703831  0.16575762  1
  O  O161  1  0.62875290  -0.00344038  0.40760429  1
  O  O162  1  0.61915719  0.00431516  0.66432991  1
  O  O163  1  0.62762060  0.00436113  0.91661550  1
  O  O164  1  0.62851101  0.24664940  0.16819500  1
  O  O165  1  0.62295198  0.25713643  0.41346084  1
  O  O166  1  0.61703174  0.23779340  0.66000708  1
  O  O167  1  0.62794143  0.24582990  0.91442436  1
  O  O168  1  0.62750308  0.50438786  0.16762020  1
  O  O169  1  0.62495856  0.49141229  0.41771480  1
  O  O170  1  0.61701716  0.50095766  0.65711724  1
  O  O171  1  0.62770541  0.50287725  0.91389174  1
  O  O172  1  0.62617500  0.74282098  0.16498821  1
  O  O173  1  0.62851954  0.75556353  0.41003805  1
  O  O174  1  0.62021530  0.75203415  0.66290271  1
  O  O175  1  0.62748326  0.74583082  0.91506135  1
  O  O176  1  0.87587300  0.01034530  0.16747653  1
  O  O177  1  0.87562349  0.00421296  0.41089614  1
  O  O178  1  0.87242419  -0.00626408  0.66402471  1
  O  O179  1  0.87109588  0.00065933  0.91623621  1
  O  O180  1  0.87704736  0.24312465  0.16855022  1
  O  O181  1  0.87659204  0.25043323  0.41842820  1
  O  O182  1  0.87115752  0.24528831  0.66057562  1
  O  O183  1  0.87118429  0.24314677  0.91064148  1
  O  O184  1  0.87407273  0.50609264  0.16560250  1
  O  O185  1  0.87738547  0.50020688  0.42107509  1
  O  O186  1  0.87236003  0.49956153  0.65826301  1
  O  O187  1  0.86931573  0.50699740  0.90682481  1
  O  O188  1  0.87198129  0.74057352  0.16414144  1
  O  O189  1  0.87872281  0.74491635  0.41315071  1
  O  O190  1  0.87240924  0.75926969  0.65969322  1
  O  O191  1  0.86944824  0.74778403  0.91391788  1
  O  O192  1  -0.00023823  0.12686116  0.16710339  1
  O  O193  1  -0.00548013  0.12776951  0.41662953  1
  O  O194  1  0.00123928  0.12115548  0.65803907  1
  O  O195  1  -0.00132982  0.12520578  0.91074923  1
  O  O196  1  0.00355382  0.37386781  0.16695441  1
  O  O197  1  0.00428486  0.37713269  0.42134244  1
  O  O198  1  0.00128626  0.37231364  0.65528535  1
  O  O199  1  -0.00229205  0.37199644  0.90772399  1
  O  O200  1  -0.00610018  0.62345147  0.15998565  1
  O  O201  1  0.00065818  0.62172692  0.41960595  1
  O  O202  1  -0.00151262  0.62817773  0.66432267  1
  O  O203  1  -0.01153601  0.62577885  0.90737795  1
  O  O204  1  0.00026881  0.87717935  0.16579443  1
  O  O205  1  0.00374398  0.87370927  0.41351300  1
  O  O206  1  -0.00676099  0.87580576  0.65896622  1
  O  O207  1  -0.00683600  0.87714987  0.91386082  1
  O  O208  1  0.24198340  0.12845914  0.16386015  1
  O  O209  1  0.25061357  0.12733439  0.41047825  1
  O  O210  1  0.25974695  0.11937414  0.65916977  1
  O  O211  1  0.24408461  0.12630991  0.91196744  1
  O  O212  1  0.24446860  0.37365637  0.16618279  1
  O  O213  1  0.24689277  0.37777983  0.41272339  1
  O  O214  1  0.26579631  0.37193251  0.66706913  1
  O  O215  1  0.25895140  0.37129224  0.91035147  1
  O  O216  1  0.25076567  0.62177390  0.15938904  1
  O  O217  1  0.24339522  0.62405912  0.41143764  1
  O  O218  1  0.26166952  0.62449511  0.66443238  1
  O  O219  1  0.25355853  0.62195728  0.91109109  1
  O  O220  1  0.25469365  0.87675697  0.15932648  1
  O  O221  1  0.23955781  0.87339221  0.40812021  1
  O  O222  1  0.26054697  0.87550420  0.66288427  1
  O  O223  1  0.25161438  0.87879159  0.91668317  1
  O  O224  1  0.50531175  0.12884872  0.16446481  1
  O  O225  1  0.49992003  0.12782690  0.40833758  1
  O  O226  1  0.49671360  0.12052591  0.66384360  1
  O  O227  1  0.51063515  0.12656125  0.91828828  1
  O  O228  1  0.49704671  0.37037736  0.15627718  1
  O  O229  1  0.49559557  0.37726924  0.40890358  1
  O  O230  1  0.49080879  0.36894221  0.66782687  1
  O  O231  1  0.50182464  0.37201344  0.91843036  1
  O  O232  1  0.50631735  0.62257287  0.16506316  1
  O  O233  1  0.49705718  0.62231784  0.41404035  1
  O  O234  1  0.49211156  0.62657769  0.66299603  1
  O  O235  1  0.51124370  0.62268428  0.91773579  1
  O  O236  1  0.49677859  0.87634199  0.16390950  1
  O  O237  1  0.50763955  0.87536384  0.40533596  1
  O  O238  1  0.49221667  0.87557095  0.66191990  1
  O  O239  1  0.50659168  0.87699585  0.91865138  1
  O  O240  1  0.75349854  0.12669314  0.16559301  1
  O  O241  1  0.75463513  0.12858011  0.41353231  1
  O  O242  1  0.74043576  0.11939216  0.65680091  1
  O  O243  1  0.74708129  0.12365259  0.91578853  1
  O  O244  1  0.75233124  0.37487355  0.17156886  1
  O  O245  1  0.74902960  0.37469125  0.41343520  1
  O  O246  1  0.74225669  0.37083934  0.65795600  1
  O  O247  1  0.74628662  0.37405853  0.91396873  1
  O  O248  1  0.75020484  0.62325892  0.16503356  1
  O  O249  1  0.75751253  0.62163831  0.41441837  1
  O  O250  1  0.74762039  0.62825238  0.65787639  1
  O  O251  1  0.74757076  0.62603364  0.91648855  1
  O  O252  1  0.74780666  0.87533571  0.17140329  1
  O  O253  1  0.74856996  0.87494691  0.41133743  1
  O  O254  1  0.75232203  0.87780769  0.66071082  1
  O  O255  1  0.74908441  0.87536662  0.92051332  1
  O  O256  1  0.12008450  0.12859632  0.05201397  1
  O  O257  1  0.12116341  0.13297115  0.28936995  1
  O  O258  1  0.12752519  0.11890294  0.52770817  1
  O  O259  1  0.12516802  0.12473745  0.79648354  1
  O  O260  1  0.12466174  0.37184364  0.04616923  1
  O  O261  1  0.12160984  0.38078089  0.30467337  1
  O  O262  1  0.14021607  0.37643680  0.53709574  1
  O  O263  1  0.13540541  0.37036755  0.78069592  1
  O  O264  1  0.12183588  0.61796460  0.02829340  1
  O  O265  1  0.11929377  0.62109336  0.29894869  1
  O  O266  1  0.12679965  0.62994245  0.53811402  1
  O  O267  1  0.13107199  0.62898042  0.78525258  1
  O  O268  1  0.11578068  0.88012372  0.03017572  1
  O  O269  1  0.11945971  0.87251052  0.29566777  1
  O  O270  1  0.12657525  0.87031469  0.53462014  1
  O  O271  1  0.13098763  0.87844704  0.79004239  1
  O  O272  1  0.37636877  0.13604271  0.04370802  1
  O  O273  1  0.37318361  0.12441535  0.27668847  1
  O  O274  1  0.37732811  0.12506214  0.54622744  1
  O  O275  1  0.38377633  0.12345469  0.78895794  1
  O  O276  1  0.37250235  0.37005873  0.04846660  1
  O  O277  1  0.37480039  0.38060888  0.29596495  1
  O  O278  1  0.37659632  0.37428269  0.54632675  1
  O  O279  1  0.37977307  0.37083264  0.79826237  1
  O  O280  1  0.38593708  0.61812791  0.03628843  1
  O  O281  1  0.37973908  0.62260819  0.28234562  1
  O  O282  1  0.37360663  0.63080035  0.54645874  1
  O  O283  1  0.38667016  0.62514305  0.78733134  1
  O  O284  1  0.37911441  0.87801984  0.04858178  1
  O  O285  1  0.37360877  0.87613296  0.28022340  1
  O  O286  1  0.37476495  0.87933251  0.54558129  1
  O  O287  1  0.38051544  0.87954532  0.78663117  1
  O  O288  1  0.62732825  0.12748448  0.05458905  1
  O  O289  1  0.62776134  0.13308173  0.28305335  1
  O  O290  1  0.62084663  0.12096155  0.54349802  1
  O  O291  1  0.62762137  0.12370566  0.80020640  1
  O  O292  1  0.63715700  0.37514057  0.03676630  1
  O  O293  1  0.62877938  0.37630034  0.30199680  1
  O  O294  1  0.61197454  0.37045190  0.53126654  1
  O  O295  1  0.62020110  0.37406657  0.80002880  1
  O  O296  1  0.62704843  0.62246272  0.05113099  1
  O  O297  1  0.62338422  0.61542331  0.29403623  1
  O  O298  1  0.62148359  0.63141043  0.52580144  1
  O  O299  1  0.62659709  0.62609862  0.79964202  1
  O  O300  1  0.63435504  0.87487357  0.03719185  1
  O  O301  1  0.62993996  0.87425509  0.29452488  1
  O  O302  1  0.62805381  0.87517346  0.53249452  1
  O  O303  1  0.62601683  0.87613151  0.80314923  1
  O  O304  1  0.87538656  0.12743464  0.05085867  1
  O  O305  1  0.87753923  0.12805617  0.30285685  1
  O  O306  1  0.87278674  0.12451166  0.53149935  1
  O  O307  1  0.87082565  0.11832326  0.79493805  1
  O  O308  1  0.87002178  0.37117121  0.03782718  1
  O  O309  1  0.88090974  0.37757873  0.30624339  1
  O  O310  1  0.86856574  0.37019462  0.53105774  1
  O  O311  1  0.86713681  0.37011553  0.78043093  1
  O  O312  1  0.87481557  0.62272166  0.04677359  1
  O  O313  1  0.87986602  0.62299469  0.30586258  1
  O  O314  1  0.87836840  0.62132538  0.53165233  1
  O  O315  1  0.86693754  0.62996933  0.79553163  1
  O  O316  1  0.86804038  0.87796034  0.04240440  1
  O  O317  1  0.87683569  0.87347431  0.28313170  1
  O  O318  1  0.87293673  0.87855744  0.54345137  1
  O  O319  1  0.86885232  0.87583772  0.79875418  1
