# generated using pymatgen
data_VFe(PbO3)2
_symmetry_space_group_name_H-M   'P 1'
_cell_length_a   15.39529441
_cell_length_b   15.36974684
_cell_length_c   18.52694533
_cell_angle_alpha   90.01195467
_cell_angle_beta   90.00005822
_cell_angle_gamma   89.98239863
_symmetry_Int_Tables_number   1
_chemical_formula_structural   VFe(PbO3)2
_chemical_formula_sum   'V32 Fe32 Pb64 O192'
_cell_volume   4383.87843609
_cell_formula_units_Z   32
loop_
 _symmetry_equiv_pos_site_id
 _symmetry_equiv_pos_as_xyz
  1  'x, y, z'
loop_
 _atom_site_type_symbol
 _atom_site_label
 _atom_site_symmetry_multiplicity
 _atom_site_fract_x
 _atom_site_fract_y
 _atom_site_fract_z
 _atom_site_occupancy
  V  V0  1  0.12253715  0.62444919  0.39059138  1
  V  V1  1  0.12302125  0.37299204  0.39168226  1
  V  V2  1  0.12507852  0.37855884  0.88578476  1
  V  V3  1  0.62243538  0.12537380  0.13641623  1
  V  V4  1  0.12418292  0.87774004  0.39349554  1
  V  V5  1  0.37442125  0.87450933  0.64193924  1
  V  V6  1  0.87504562  0.37787670  0.89086495  1
  V  V7  1  0.62416670  0.37310622  0.39227755  1
  V  V8  1  0.12311385  0.12139241  0.64493231  1
  V  V9  1  0.87156935  0.62615683  0.89869479  1
  V  V10  1  0.12864887  0.12563863  0.13946644  1
  V  V11  1  0.87634490  0.12600331  0.39010791  1
  V  V12  1  0.13089779  0.87434470  0.13625514  1
  V  V13  1  0.62702973  0.87373014  0.88761233  1
  V  V14  1  0.37153118  0.12589008  0.39240236  1
  V  V15  1  0.37470922  0.87730314  0.13932453  1
  V  V16  1  0.12786163  0.62593575  0.13966353  1
  V  V17  1  0.62394041  0.37690208  0.88622593  1
  V  V18  1  0.87405098  0.37461881  0.38810885  1
  V  V19  1  0.87633015  0.62557066  0.63764772  1
  V  V20  1  0.87437709  0.37458426  0.64103480  1
  V  V21  1  0.12895229  0.37705094  0.13965363  1
  V  V22  1  0.37231577  0.62546375  0.14216382  1
  V  V23  1  0.37830038  0.37458148  0.14267905  1
  V  V24  1  0.12424022  0.88179584  0.88486852  1
  V  V25  1  0.12287235  0.37511927  0.64119627  1
  V  V26  1  0.12169845  0.62642359  0.88920861  1
  V  V27  1  0.62803853  0.87566760  0.63696722  1
  V  V28  1  0.37388799  0.12600062  0.64296425  1
  V  V29  1  0.12579814  0.62505740  0.63761051  1
  V  V30  1  0.87665669  0.62466722  0.38762491  1
  V  V31  1  0.37793179  0.87706777  0.39021175  1
  Fe  Fe32  1  0.62339276  0.12413777  0.64198779  1
  Fe  Fe33  1  0.62574998  0.62443690  0.38812850  1
  Fe  Fe34  1  0.87790731  0.87689830  0.12942156  1
  Fe  Fe35  1  0.37562532  0.12560186  0.88281503  1
  Fe  Fe36  1  0.62719051  0.62721790  0.63109133  1
  Fe  Fe37  1  0.37561642  0.37923583  0.87612459  1
  Fe  Fe38  1  0.62179772  0.87552365  0.13918790  1
  Fe  Fe39  1  0.37169552  0.62546924  0.39586828  1
  Fe  Fe40  1  0.62699246  0.87714189  0.38084549  1
  Fe  Fe41  1  0.87638233  0.87253757  0.89517353  1
  Fe  Fe42  1  0.87501145  0.37129172  0.13484960  1
  Fe  Fe43  1  0.12337534  0.12909220  0.87970754  1
  Fe  Fe44  1  0.87498494  0.12576620  0.88264397  1
  Fe  Fe45  1  0.87381965  0.12581109  0.13247708  1
  Fe  Fe46  1  0.12546697  0.12579462  0.38781742  1
  Fe  Fe47  1  0.87599098  0.87363248  0.63318441  1
  Fe  Fe48  1  0.62296057  0.62356099  0.13422536  1
  Fe  Fe49  1  0.37549489  0.37238317  0.39120479  1
  Fe  Fe50  1  0.12556695  0.87333024  0.63732971  1
  Fe  Fe51  1  0.37225471  0.37542699  0.63786789  1
  Fe  Fe52  1  0.37512701  0.62691053  0.62737116  1
  Fe  Fe53  1  0.87620519  0.12432101  0.64147377  1
  Fe  Fe54  1  0.87794427  0.62373559  0.13137564  1
  Fe  Fe55  1  0.62586384  0.37571760  0.63358680  1
  Fe  Fe56  1  0.87643328  0.87536489  0.38759759  1
  Fe  Fe57  1  0.62448626  0.12487858  0.39007265  1
  Fe  Fe58  1  0.62679816  0.12506345  0.87787583  1
  Fe  Fe59  1  0.62381210  0.37436591  0.13253640  1
  Fe  Fe60  1  0.37452582  0.12468992  0.13347857  1
  Fe  Fe61  1  0.62739125  0.62545580  0.88873243  1
  Fe  Fe62  1  0.37588845  0.87054915  0.88280781  1
  Fe  Fe63  1  0.37683319  0.62414334  0.88324750  1
  Pb  Pb64  1  -0.01029595  0.00802848  -0.00090893  1
  Pb  Pb65  1  -0.00551486  -0.00396086  0.24848284  1
  Pb  Pb66  1  -0.01024035  0.00187962  0.50813087  1
  Pb  Pb67  1  -0.01486816  -0.00695733  0.75443622  1
  Pb  Pb68  1  -0.00659668  0.24903603  -0.00135348  1
  Pb  Pb69  1  0.00510105  0.24308868  0.24854268  1
  Pb  Pb70  1  -0.00670303  0.24201319  0.50440893  1
  Pb  Pb71  1  0.00117890  0.24196256  0.75452855  1
  Pb  Pb72  1  -0.00691953  0.49875783  0.00592816  1
  Pb  Pb73  1  -0.00169557  0.49978681  0.24539932  1
  Pb  Pb74  1  -0.00101869  0.49841081  0.49962442  1
  Pb  Pb75  1  -0.00142992  0.50239995  0.75161579  1
  Pb  Pb76  1  -0.00600940  0.74893441  0.00624284  1
  Pb  Pb77  1  -0.00567295  0.75695878  0.24572881  1
  Pb  Pb78  1  -0.00057420  0.76202926  0.50438228  1
  Pb  Pb79  1  -0.00619671  0.75883066  0.75191895  1
  Pb  Pb80  1  0.25858648  0.00862995  -0.00509600  1
  Pb  Pb81  1  0.24538489  0.00711018  0.25104928  1
  Pb  Pb82  1  0.24536594  -0.00511496  0.50457220  1
  Pb  Pb83  1  0.25379070  0.00304929  0.75476590  1
  Pb  Pb84  1  0.25790067  0.24562502  -0.00595599  1
  Pb  Pb85  1  0.25346687  0.25419289  0.25369735  1
  Pb  Pb86  1  0.25392319  0.25566727  0.50532318  1
  Pb  Pb87  1  0.24900444  0.24489597  0.75335840  1
  Pb  Pb88  1  0.25433595  0.49909125  -0.00469511  1
  Pb  Pb89  1  0.26481816  0.49903377  0.26243466  1
  Pb  Pb90  1  0.25947243  0.49717178  0.50502185  1
  Pb  Pb91  1  0.26234670  0.50227788  0.74834533  1
  Pb  Pb92  1  0.25234281  0.74949818  -0.00384933  1
  Pb  Pb93  1  0.25726265  0.74473949  0.25441463  1
  Pb  Pb94  1  0.24475565  0.75249847  0.50230388  1
  Pb  Pb95  1  0.26040095  0.74912395  0.75252114  1
  Pb  Pb96  1  0.50210864  -0.00164848  -0.00773439  1
  Pb  Pb97  1  0.51214244  0.00384682  0.25497273  1
  Pb  Pb98  1  0.50898173  0.00403621  0.50259626  1
  Pb  Pb99  1  0.49460797  0.00043593  0.75372906  1
  Pb  Pb100  1  0.49741812  0.24707093  -0.00925944  1
  Pb  Pb101  1  0.50388205  0.24503688  0.25211221  1
  Pb  Pb102  1  0.51112267  0.25171757  0.50972844  1
  Pb  Pb103  1  0.50084266  0.25439572  0.74572165  1
  Pb  Pb104  1  0.50679890  0.50368432  -0.00394907  1
  Pb  Pb105  1  0.50300947  0.50768482  0.25529304  1
  Pb  Pb106  1  0.49379527  0.50100280  0.50080129  1
  Pb  Pb107  1  0.49701183  0.50399147  0.73798715  1
  Pb  Pb108  1  0.50543229  0.74700024  -0.00050843  1
  Pb  Pb109  1  0.51140006  0.74366497  0.25479663  1
  Pb  Pb110  1  0.50398340  0.73948145  0.49712522  1
  Pb  Pb111  1  0.49651823  0.74194626  0.74741854  1
  Pb  Pb112  1  0.75469789  0.00260254  -0.00533820  1
  Pb  Pb113  1  0.75442455  -0.01064707  0.24620914  1
  Pb  Pb114  1  0.75336135  0.00012560  0.49754169  1
  Pb  Pb115  1  0.75463749  0.00448718  0.74929619  1
  Pb  Pb116  1  0.75211676  0.25312596  -0.00267439  1
  Pb  Pb117  1  0.74952053  0.24848409  0.24439130  1
  Pb  Pb118  1  0.74391407  0.24682703  0.50606760  1
  Pb  Pb119  1  0.74534306  0.23930001  0.74891638  1
  Pb  Pb120  1  0.74593591  0.49446571  0.00794343  1
  Pb  Pb121  1  0.74571371  0.50360305  0.24051466  1
  Pb  Pb122  1  0.74048304  0.49815674  0.50201266  1
  Pb  Pb123  1  0.73965550  0.50700158  0.74997591  1
  Pb  Pb124  1  0.73546521  0.75542216  0.01111751  1
  Pb  Pb125  1  0.74902178  0.75230453  0.24032678  1
  Pb  Pb126  1  0.74577083  0.75134877  0.49323435  1
  Pb  Pb127  1  0.74506903  0.74839113  0.75231878  1
  O  O128  1  0.13131941  0.00376546  0.16029232  1
  O  O129  1  0.12584870  -0.00476353  0.41506348  1
  O  O130  1  0.12816432  0.00538477  0.66187481  1
  O  O131  1  0.12674079  -0.00341977  0.89808468  1
  O  O132  1  0.13074012  0.24984381  0.16375922  1
  O  O133  1  0.12271899  0.25529203  0.41683987  1
  O  O134  1  0.12450158  0.25081016  0.66595807  1
  O  O135  1  0.12141387  0.26256966  0.90853733  1
  O  O136  1  0.12726180  0.49472414  0.16250161  1
  O  O137  1  0.11893018  0.49532931  0.41505655  1
  O  O138  1  0.11846068  0.50578057  0.66543345  1
  O  O139  1  0.12129611  0.49702079  0.91673406  1
  O  O140  1  0.12899044  0.74967957  0.16382583  1
  O  O141  1  0.12383999  0.75186205  0.41598568  1
  O  O142  1  0.12072582  0.74010852  0.66225279  1
  O  O143  1  0.12311980  0.74050811  0.91193014  1
  O  O144  1  0.36825660  -0.00578358  0.15922390  1
  O  O145  1  0.36933725  -0.00298507  0.41836195  1
  O  O146  1  0.37201774  -0.00089066  0.66654263  1
  O  O147  1  0.37281935  -0.00405345  0.91138086  1
  O  O148  1  0.37051774  0.25596219  0.16356143  1
  O  O149  1  0.36925828  0.24309252  0.41432765  1
  O  O150  1  0.37127736  0.24370847  0.66095870  1
  O  O151  1  0.37545626  0.25560943  0.90872588  1
  O  O152  1  0.36929856  0.49628962  0.16791921  1
  O  O153  1  0.37170954  0.49637119  0.41781445  1
  O  O154  1  0.37107993  0.50366919  0.65716799  1
  O  O155  1  0.37358059  0.49949791  0.91483194  1
  O  O156  1  0.36765808  0.75167168  0.16580466  1
  O  O157  1  0.36980820  0.76041130  0.41440681  1
  O  O158  1  0.37164478  0.75388847  0.65944889  1
  O  O159  1  0.37091290  0.74791918  0.91614332  1
  O  O160  1  0.61978780  0.00729876  0.16163834  1
  O  O161  1  0.62280143  0.00075137  0.41720013  1
  O  O162  1  0.61879048  -0.00970605  0.66362660  1
  O  O163  1  0.62519786  -0.00629407  0.90815524  1
  O  O164  1  0.61978087  0.24492623  0.16367921  1
  O  O165  1  0.62621284  0.25176982  0.41866473  1
  O  O166  1  0.62503203  0.25185972  0.66510602  1
  O  O167  1  0.62923047  0.25912670  0.90692457  1
  O  O168  1  0.62027925  0.49843702  0.16469532  1
  O  O169  1  0.62926322  0.49205639  0.41230029  1
  O  O170  1  0.63035694  0.50175476  0.66026414  1
  O  O171  1  0.63238102  0.49456400  0.91329573  1
  O  O172  1  0.62037940  0.74865362  0.16520185  1
  O  O173  1  0.62632326  0.75232626  0.41105225  1
  O  O174  1  0.62521522  0.75783308  0.66370586  1
  O  O175  1  0.62726457  0.75453699  0.91573873  1
  O  O176  1  0.88001808  0.00276288  0.16285667  1
  O  O177  1  0.87930615  0.00769429  0.41316143  1
  O  O178  1  0.87702418  -0.00304713  0.66505254  1
  O  O179  1  0.87845357  -0.00035104  0.91267893  1
  O  O180  1  0.87856690  0.24689653  0.16814219  1
  O  O181  1  0.87686738  0.24865566  0.41610527  1
  O  O182  1  0.88011844  0.25828604  0.66242074  1
  O  O183  1  0.87664500  0.25891757  0.90858314  1
  O  O184  1  0.88122787  0.49711524  0.16307075  1
  O  O185  1  0.87779507  0.49929806  0.41506760  1
  O  O186  1  0.87713517  0.50193379  0.66507540  1
  O  O187  1  0.87660418  0.49960498  0.91929221  1
  O  O188  1  0.88186395  0.75093374  0.15936954  1
  O  O189  1  0.87912514  0.74153960  0.40886443  1
  O  O190  1  0.87604989  0.74366229  0.66048020  1
  O  O191  1  0.88341772  0.74244351  0.91653122  1
  O  O192  1  0.01177028  0.12682658  0.16121987  1
  O  O193  1  -0.00290137  0.12761816  0.41619445  1
  O  O194  1  0.00677165  0.12756524  0.66475677  1
  O  O195  1  0.00152738  0.12971142  0.91097907  1
  O  O196  1  0.01207678  0.37043750  0.16351000  1
  O  O197  1  -0.00015069  0.37378294  0.41701687  1
  O  O198  1  -0.00207804  0.37892916  0.67049932  1
  O  O199  1  -0.00223767  0.37983318  0.91250431  1
  O  O200  1  0.00869461  0.62284179  0.16598320  1
  O  O201  1  -0.00224193  0.62208082  0.41852673  1
  O  O202  1  -0.00511455  0.62338932  0.66471456  1
  O  O203  1  0.00403817  0.61846570  0.91741305  1
  O  O204  1  0.01038652  0.87764660  0.16190097  1
  O  O205  1  0.00591258  0.87396268  0.41387550  1
  O  O206  1  0.00132255  0.87211362  0.66591020  1
  O  O207  1  0.01314752  0.87004639  0.91600457  1
  O  O208  1  0.24785967  0.12661754  0.16666411  1
  O  O209  1  0.25356926  0.12199586  0.41987766  1
  O  O210  1  0.24993399  0.12530627  0.66607161  1
  O  O211  1  0.24684961  0.12845376  0.91280942  1
  O  O212  1  0.24747724  0.37434402  0.16871271  1
  O  O213  1  0.23941011  0.37465755  0.41612800  1
  O  O214  1  0.24086376  0.37747335  0.66358424  1
  O  O215  1  0.24219859  0.37985437  0.90507702  1
  O  O216  1  0.24879053  0.62282927  0.17286766  1
  O  O217  1  0.23937943  0.62433737  0.41651275  1
  O  O218  1  0.24179834  0.62450888  0.65423120  1
  O  O219  1  0.24024709  0.61926734  0.91321502  1
  O  O220  1  0.25041290  0.87450762  0.17021320  1
  O  O221  1  0.24748915  0.87536821  0.41816620  1
  O  O222  1  0.25416252  0.87516798  0.66390782  1
  O  O223  1  0.23872903  0.86827539  0.91238060  1
  O  O224  1  0.50020747  0.12647095  0.16283401  1
  O  O225  1  0.48758651  0.12317994  0.41813715  1
  O  O226  1  0.49121590  0.12173202  0.66363382  1
  O  O227  1  0.50307505  0.12621127  0.91053035  1
  O  O228  1  0.49280613  0.37491852  0.16237845  1
  O  O229  1  0.50663057  0.37217710  0.41285288  1
  O  O230  1  0.49928950  0.37535415  0.65864542  1
  O  O231  1  0.50716043  0.37885712  0.90421633  1
  O  O232  1  0.49085019  0.62286748  0.16482118  1
  O  O233  1  0.49985394  0.62355870  0.41482329  1
  O  O234  1  0.50065199  0.62949917  0.65438053  1
  O  O235  1  0.50215090  0.62344711  0.91115081  1
  O  O236  1  0.48802199  0.87368387  0.16134572  1
  O  O237  1  0.49253940  0.87774518  0.41054017  1
  O  O238  1  0.49537452  0.87394584  0.66378998  1
  O  O239  1  0.50595957  0.87266097  0.90956747  1
  O  O240  1  0.74172477  0.12568250  0.15753506  1
  O  O241  1  0.75739285  0.12656090  0.41172203  1
  O  O242  1  0.75024438  0.12342047  0.66288030  1
  O  O243  1  0.74946426  0.12650814  0.91015033  1
  O  O244  1  0.74852835  0.37152687  0.16460310  1
  O  O245  1  0.75132248  0.37137971  0.41552813  1
  O  O246  1  0.76014310  0.37674026  0.66276347  1
  O  O247  1  0.75468223  0.37782457  0.91241428  1
  O  O248  1  0.75160480  0.62411784  0.15784883  1
  O  O249  1  0.75993514  0.62147123  0.40950415  1
  O  O250  1  0.75856565  0.62591073  0.66278538  1
  O  O251  1  0.75744716  0.62467010  0.91706021  1
  O  O252  1  0.75101244  0.87685268  0.15887939  1
  O  O253  1  0.75221870  0.87866444  0.41112105  1
  O  O254  1  0.74434697  0.87521526  0.65673869  1
  O  O255  1  0.74562795  0.87279351  0.91367502  1
  O  O256  1  0.13046381  0.12809889  0.04851622  1
  O  O257  1  0.12841478  0.12556191  0.28900741  1
  O  O258  1  0.12538224  0.12707711  0.55347756  1
  O  O259  1  0.12865636  0.13458159  0.77981021  1
  O  O260  1  0.13112032  0.37448174  0.04907209  1
  O  O261  1  0.12368773  0.37289236  0.30068707  1
  O  O262  1  0.11924978  0.37576636  0.55005482  1
  O  O263  1  0.12003616  0.38313504  0.79480790  1
  O  O264  1  0.13037187  0.62377607  0.04879196  1
  O  O265  1  0.12056183  0.62506164  0.29988979  1
  O  O266  1  0.11875735  0.62247928  0.54651935  1
  O  O267  1  0.12055289  0.62373413  0.79814227  1
  O  O268  1  0.13395803  0.87447771  0.04563807  1
  O  O269  1  0.12781547  0.87548637  0.30263499  1
  O  O270  1  0.12646870  0.86965587  0.53728877  1
  O  O271  1  0.12270956  0.86851747  0.79366938  1
  O  O272  1  0.36803198  0.12813124  0.03389356  1
  O  O273  1  0.37124798  0.12232250  0.30099551  1
  O  O274  1  0.37052008  0.12166250  0.55217925  1
  O  O275  1  0.36950947  0.11997274  0.78251305  1
  O  O276  1  0.37435048  0.37843903  0.05181951  1
  O  O277  1  0.36806324  0.37501453  0.29095178  1
  O  O278  1  0.36471696  0.37247714  0.53563258  1
  O  O279  1  0.37298308  0.38319791  0.77613573  1
  O  O280  1  0.36748373  0.62274073  0.05118235  1
  O  O281  1  0.36742666  0.62291399  0.29419888  1
  O  O282  1  0.37276514  0.62517162  0.52614178  1
  O  O283  1  0.36943800  0.62950061  0.78252368  1
  O  O284  1  0.36975328  0.87202951  0.04822852  1
  O  O285  1  0.37328187  0.87954818  0.29962007  1
  O  O286  1  0.37438829  0.87906444  0.55103870  1
  O  O287  1  0.37128897  0.86823954  0.78303305  1
  O  O288  1  0.61955773  0.12690858  0.04554489  1
  O  O289  1  0.61159424  0.12613898  0.29066230  1
  O  O290  1  0.61797827  0.12894716  0.53968592  1
  O  O291  1  0.62566256  0.12437390  0.77724402  1
  O  O292  1  0.62945989  0.37748798  0.03285402  1
  O  O293  1  0.62542492  0.36882880  0.30138813  1
  O  O294  1  0.63170022  0.36933544  0.53294794  1
  O  O295  1  0.62955470  0.38047157  0.79499737  1
  O  O296  1  0.62157652  0.62754296  0.03261734  1
  O  O297  1  0.61726558  0.62231142  0.28741806  1
  O  O298  1  0.63366953  0.62875342  0.53035240  1
  O  O299  1  0.63830403  0.63031772  0.78795668  1
  O  O300  1  0.62152125  0.86904328  0.03881613  1
  O  O301  1  0.62145295  0.88114323  0.27962320  1
  O  O302  1  0.62327596  0.87571546  0.54572307  1
  O  O303  1  0.62877923  0.86928472  0.79649059  1
  O  O304  1  0.88194755  0.12717411  0.03236500  1
  O  O305  1  0.87971942  0.12690342  0.29908310  1
  O  O306  1  0.88440264  0.12288617  0.54055705  1
  O  O307  1  0.87650791  0.12388083  0.78049145  1
  O  O308  1  0.87597115  0.36980783  0.03448516  1
  O  O309  1  0.87608404  0.37313173  0.29773726  1
  O  O310  1  0.87809211  0.37732530  0.54991386  1
  O  O311  1  0.87537984  0.38402889  0.80035641  1
  O  O312  1  0.88757085  0.62256294  0.03145008  1
  O  O313  1  0.88278071  0.62060335  0.29699277  1
  O  O314  1  0.87679814  0.62261210  0.54702513  1
  O  O315  1  0.87568471  0.62296688  0.80733531  1
  O  O316  1  0.88336849  0.87751518  0.02824336  1
  O  O317  1  0.88317419  0.88049711  0.28718672  1
  O  O318  1  0.88348510  0.87757460  0.53197671  1
  O  O319  1  0.88338710  0.87164122  0.79355633  1
