# generated using pymatgen
data_VFe(PbO3)2
_symmetry_space_group_name_H-M   'P 1'
_cell_length_a   15.40736365
_cell_length_b   15.38555312
_cell_length_c   18.47018862
_cell_angle_alpha   90.01140913
_cell_angle_beta   89.98313328
_cell_angle_gamma   89.99785435
_symmetry_Int_Tables_number   1
_chemical_formula_structural   VFe(PbO3)2
_chemical_formula_sum   'V32 Fe32 Pb64 O192'
_cell_volume   4378.37292757
_cell_formula_units_Z   32
loop_
 _symmetry_equiv_pos_site_id
 _symmetry_equiv_pos_as_xyz
  1  'x, y, z'
loop_
 _atom_site_type_symbol
 _atom_site_label
 _atom_site_symmetry_multiplicity
 _atom_site_fract_x
 _atom_site_fract_y
 _atom_site_fract_z
 _atom_site_occupancy
  V  V0  1  0.62617161  0.12354090  0.38813190  1
  V  V1  1  0.37642549  0.12618869  0.88182746  1
  V  V2  1  0.11783854  0.12313350  0.63770485  1
  V  V3  1  0.12670981  0.62566390  0.14192832  1
  V  V4  1  0.86973979  0.12454058  0.64796286  1
  V  V5  1  0.12154166  0.87437751  0.39540674  1
  V  V6  1  0.62236320  0.62592144  0.38989905  1
  V  V7  1  0.37032562  0.87476934  0.13943875  1
  V  V8  1  0.87240998  0.37653868  0.64203357  1
  V  V9  1  0.62771987  0.87407932  0.38756693  1
  V  V10  1  0.87340516  0.37374010  0.39031527  1
  V  V11  1  0.37296399  0.12625106  0.13867004  1
  V  V12  1  0.87740341  0.37661964  0.13806850  1
  V  V13  1  0.12698325  0.37583395  0.13956960  1
  V  V14  1  0.12743277  0.12674694  0.88161445  1
  V  V15  1  0.87270596  0.87593010  0.64656492  1
  V  V16  1  0.36851891  0.12304020  0.63766955  1
  V  V17  1  0.87690795  0.37482291  0.88175005  1
  V  V18  1  0.87693726  0.12548990  0.39076924  1
  V  V19  1  0.12574709  0.62289744  0.87845286  1
  V  V20  1  0.12335353  0.37480636  0.39872790  1
  V  V21  1  0.37388355  0.62391234  0.13942522  1
  V  V22  1  0.12674695  0.12467553  0.39779165  1
  V  V23  1  0.11679239  0.62661773  0.63612661  1
  V  V24  1  0.62572831  0.87340343  0.64948384  1
  V  V25  1  0.37014850  0.62723348  0.64281338  1
  V  V26  1  0.12773100  0.87457776  0.13959022  1
  V  V27  1  0.62572261  0.62333281  0.64558985  1
  V  V28  1  0.62266232  0.12230150  0.64568707  1
  V  V29  1  0.87562539  0.62580690  0.39312299  1
  V  V30  1  0.12877679  0.12462089  0.14039839  1
  V  V31  1  0.37805742  0.12458822  0.39583499  1
  Fe  Fe32  1  0.88037253  0.12793986  0.12860393  1
  Fe  Fe33  1  0.62369708  0.87620902  0.88985492  1
  Fe  Fe34  1  0.62655623  0.37554787  0.38872078  1
  Fe  Fe35  1  0.37606636  0.37326269  0.39464440  1
  Fe  Fe36  1  0.87755936  0.87454364  0.12548045  1
  Fe  Fe37  1  0.87855363  0.62234158  0.12911597  1
  Fe  Fe38  1  0.62782991  0.37331904  0.64654626  1
  Fe  Fe39  1  0.62040390  0.37483699  0.13443370  1
  Fe  Fe40  1  0.12618607  0.87476464  0.87550088  1
  Fe  Fe41  1  0.62548374  0.37359814  0.87577611  1
  Fe  Fe42  1  0.62521492  0.12683216  0.88853870  1
  Fe  Fe43  1  0.12241142  0.37540271  0.64484290  1
  Fe  Fe44  1  0.37289876  0.37388386  0.87708089  1
  Fe  Fe45  1  0.62220501  0.87455113  0.12503679  1
  Fe  Fe46  1  0.37345120  0.62336670  0.87539498  1
  Fe  Fe47  1  0.37271708  0.87567425  0.87565061  1
  Fe  Fe48  1  0.62461327  0.62449519  0.12686569  1
  Fe  Fe49  1  0.62346493  0.62248199  0.88506968  1
  Fe  Fe50  1  0.37897342  0.87613402  0.64814770  1
  Fe  Fe51  1  0.37871292  0.37394172  0.63990767  1
  Fe  Fe52  1  0.36889218  0.37569153  0.13493105  1
  Fe  Fe53  1  0.12182740  0.87494809  0.64682088  1
  Fe  Fe54  1  0.86956938  0.62712839  0.64663068  1
  Fe  Fe55  1  0.12396739  0.62465613  0.39072259  1
  Fe  Fe56  1  0.62425185  0.12689899  0.12816354  1
  Fe  Fe57  1  0.37370672  0.62607527  0.38891334  1
  Fe  Fe58  1  0.12401893  0.37518482  0.87385874  1
  Fe  Fe59  1  0.87843866  0.87500786  0.89317792  1
  Fe  Fe60  1  0.37676455  0.87691766  0.38955793  1
  Fe  Fe61  1  0.87732298  0.62171416  0.88132194  1
  Fe  Fe62  1  0.87738595  0.12799695  0.88665052  1
  Fe  Fe63  1  0.87374389  0.87625012  0.38551514  1
  Pb  Pb64  1  -0.00552312  -0.00121344  -0.00465105  1
  Pb  Pb65  1  -0.00818217  -0.00460313  0.24686804  1
  Pb  Pb66  1  0.00232943  -0.00461956  0.50688763  1
  Pb  Pb67  1  -0.01390710  -0.00224704  0.76154885  1
  Pb  Pb68  1  -0.00017614  0.24775514  -0.00518779  1
  Pb  Pb69  1  0.00353038  0.24995809  0.24831983  1
  Pb  Pb70  1  0.00110006  0.25349610  0.50839149  1
  Pb  Pb71  1  -0.00488536  0.24576819  0.75232710  1
  Pb  Pb72  1  -0.00137798  0.50347924  -0.00589429  1
  Pb  Pb73  1  0.00743282  0.50667305  0.25207625  1
  Pb  Pb74  1  -0.00116108  0.49760746  0.50727461  1
  Pb  Pb75  1  -0.00342171  0.50371259  0.74995746  1
  Pb  Pb76  1  -0.00524315  0.75026607  -0.00669314  1
  Pb  Pb77  1  -0.00762306  0.75382078  0.24781801  1
  Pb  Pb78  1  -0.00070849  0.75184272  0.50539211  1
  Pb  Pb79  1  -0.01472582  0.75692704  0.76040407  1
  Pb  Pb80  1  0.24875654  -0.00032496  -0.00929299  1
  Pb  Pb81  1  0.25411090  -0.00439315  0.25646476  1
  Pb  Pb82  1  0.24690541  -0.01278857  0.51046808  1
  Pb  Pb83  1  0.25026307  -0.00890179  0.74948651  1
  Pb  Pb84  1  0.25363809  0.25809695  -0.00628403  1
  Pb  Pb85  1  0.25611863  0.25690117  0.25521881  1
  Pb  Pb86  1  0.24848750  0.25872691  0.51070362  1
  Pb  Pb87  1  0.25061456  0.26186138  0.74775972  1
  Pb  Pb88  1  0.25621663  0.49355214  -0.00973206  1
  Pb  Pb89  1  0.25293508  0.50867658  0.25803582  1
  Pb  Pb90  1  0.25579238  0.49986262  0.50326375  1
  Pb  Pb91  1  0.25508625  0.49478793  0.74663218  1
  Pb  Pb92  1  0.25208729  0.74992718  -0.01355715  1
  Pb  Pb93  1  0.25249660  0.74389337  0.25886544  1
  Pb  Pb94  1  0.25296715  0.75310844  0.50335431  1
  Pb  Pb95  1  0.25004709  0.75727919  0.74843664  1
  Pb  Pb96  1  0.50712630  -0.00397697  -0.00445645  1
  Pb  Pb97  1  0.49908326  -0.00299264  0.24385985  1
  Pb  Pb98  1  0.49358594  -0.00521752  0.50565972  1
  Pb  Pb99  1  0.51125856  -0.00135730  0.76018030  1
  Pb  Pb100  1  0.50991857  0.25997784  -0.00318899  1
  Pb  Pb101  1  0.50290136  0.26373716  0.25312559  1
  Pb  Pb102  1  0.50496907  0.26295278  0.51033146  1
  Pb  Pb103  1  0.50405556  0.25660382  0.75177979  1
  Pb  Pb104  1  0.50164265  0.49548452  -0.01315338  1
  Pb  Pb105  1  0.49936946  0.49272154  0.24891947  1
  Pb  Pb106  1  0.49858591  0.49125327  0.50362913  1
  Pb  Pb107  1  0.49676517  0.50235993  0.75295236  1
  Pb  Pb108  1  0.50290701  0.74799476  -0.01244813  1
  Pb  Pb109  1  0.49526420  0.74994552  0.24458602  1
  Pb  Pb110  1  0.49278988  0.75628122  0.50413857  1
  Pb  Pb111  1  0.50209974  0.74041942  0.76003787  1
  Pb  Pb112  1  0.75096450  -0.00227728  -0.00778283  1
  Pb  Pb113  1  0.75158059  -0.00166977  0.23155834  1
  Pb  Pb114  1  0.74842224  0.00233224  0.49790972  1
  Pb  Pb115  1  0.74472309  -0.00106611  0.76569776  1
  Pb  Pb116  1  0.74162791  0.24727974  -0.00390406  1
  Pb  Pb117  1  0.74501133  0.24846670  0.24171092  1
  Pb  Pb118  1  0.74366759  0.25525424  0.50333065  1
  Pb  Pb119  1  0.74348868  0.24442946  0.75816642  1
  Pb  Pb120  1  0.74148359  0.50488743  -0.00615948  1
  Pb  Pb121  1  0.74309298  0.50272909  0.24234392  1
  Pb  Pb122  1  0.75291274  0.50518806  0.50525160  1
  Pb  Pb123  1  0.74315336  0.50855688  0.75816660  1
  Pb  Pb124  1  0.74956843  0.74521506  -0.01091825  1
  Pb  Pb125  1  0.75082509  0.75248976  0.23264312  1
  Pb  Pb126  1  0.75409132  0.74355200  0.50407330  1
  Pb  Pb127  1  0.74501980  0.75598833  0.76451294  1
  O  O128  1  0.12789657  -0.00429775  0.16531910  1
  O  O129  1  0.12188330  -0.00305776  0.42152480  1
  O  O130  1  0.12656994  0.00968850  0.66368299  1
  O  O131  1  0.12815977  0.00784507  0.90507431  1
  O  O132  1  0.12750208  0.25059297  0.16783490  1
  O  O133  1  0.12244172  0.25201281  0.42331379  1
  O  O134  1  0.12402205  0.23922503  0.66252122  1
  O  O135  1  0.12699550  0.24575151  0.90534001  1
  O  O136  1  0.12738723  0.50003087  0.16920918  1
  O  O137  1  0.12159520  0.49232372  0.41949664  1
  O  O138  1  0.12620224  0.50957350  0.66112426  1
  O  O139  1  0.12604093  0.50433067  0.90310638  1
  O  O140  1  0.12745884  0.75427004  0.16511525  1
  O  O141  1  0.12115792  0.75661013  0.41740491  1
  O  O142  1  0.12666992  0.74046041  0.66195386  1
  O  O143  1  0.12564720  0.74223732  0.90369080  1
  O  O144  1  0.36803208  0.00167826  0.16723614  1
  O  O145  1  0.37207404  0.00454937  0.42273148  1
  O  O146  1  0.37978007  0.01002924  0.66581259  1
  O  O147  1  0.36717442  0.00883189  0.90740382  1
  O  O148  1  0.36662295  0.24210855  0.16193256  1
  O  O149  1  0.37034600  0.23961572  0.41961821  1
  O  O150  1  0.38128134  0.23812138  0.66225898  1
  O  O151  1  0.36696305  0.24273748  0.90684301  1
  O  O152  1  0.36859977  0.50759655  0.16107737  1
  O  O153  1  0.37585444  0.50058092  0.41952136  1
  O  O154  1  0.38121982  0.50808967  0.65905469  1
  O  O155  1  0.36966161  0.49944089  0.90613302  1
  O  O156  1  0.36919132  0.74912369  0.16565996  1
  O  O157  1  0.37562229  0.75229154  0.42034788  1
  O  O158  1  0.38188626  0.74377606  0.66481181  1
  O  O159  1  0.37063990  0.74909442  0.90405363  1
  O  O160  1  0.62063956  0.00139060  0.15809042  1
  O  O161  1  0.62563950  0.00151773  0.41686141  1
  O  O162  1  0.63069217  -0.00047452  0.67082973  1
  O  O163  1  0.62276235  0.00305204  0.91304072  1
  O  O164  1  0.62305310  0.24938860  0.16523674  1
  O  O165  1  0.62501925  0.24184984  0.41627798  1
  O  O166  1  0.62940060  0.23992801  0.66517417  1
  O  O167  1  0.62512361  0.25279071  0.91054948  1
  O  O168  1  0.62173256  0.50079763  0.16410797  1
  O  O169  1  0.62772499  0.50816875  0.41487021  1
  O  O170  1  0.63011186  0.50588307  0.65966719  1
  O  O171  1  0.62697736  0.49519831  0.90659374  1
  O  O172  1  0.62103681  0.74952818  0.15875511  1
  O  O173  1  0.62916143  0.74781988  0.41450023  1
  O  O174  1  0.62818955  0.75524004  0.66972354  1
  O  O175  1  0.62379487  0.74908958  0.90681090  1
  O  O176  1  0.88224099  0.00085523  0.15699662  1
  O  O177  1  0.87590726  0.00497971  0.41638828  1
  O  O178  1  0.87335697  -0.00194900  0.67087271  1
  O  O179  1  0.88145572  0.00352558  0.91044923  1
  O  O180  1  0.88238915  0.25758929  0.16448570  1
  O  O181  1  0.87616620  0.24909447  0.41879928  1
  O  O182  1  0.87608903  0.24882058  0.66729968  1
  O  O183  1  0.88306246  0.25805116  0.90947137  1
  O  O184  1  0.88099895  0.49287580  0.16486720  1
  O  O185  1  0.87380183  0.49789838  0.41998989  1
  O  O186  1  0.87210987  0.49374426  0.66330553  1
  O  O187  1  0.88077697  0.49207467  0.90810953  1
  O  O188  1  0.88127698  0.74937379  0.15809580  1
  O  O189  1  0.87419269  0.74779923  0.41690555  1
  O  O190  1  0.87153925  0.75778694  0.66783428  1
  O  O191  1  0.88122177  0.74566949  0.90793464  1
  O  O192  1  0.00870278  0.12669835  0.16660415  1
  O  O193  1  0.00136334  0.12564838  0.42086385  1
  O  O194  1  0.00131503  0.12313003  0.66214262  1
  O  O195  1  0.01112827  0.12814559  0.90927484  1
  O  O196  1  0.00379742  0.37550120  0.16885304  1
  O  O197  1  -0.00068053  0.37339318  0.42164994  1
  O  O198  1  -0.00891758  0.37366450  0.66555858  1
  O  O199  1  -0.00060314  0.37547385  0.90651217  1
  O  O200  1  0.00610130  0.62303081  0.16544212  1
  O  O201  1  -0.00406037  0.62321734  0.41924112  1
  O  O202  1  0.00199007  0.62404719  0.65651454  1
  O  O203  1  0.00862453  0.62105704  0.90740829  1
  O  O204  1  0.01025066  0.87480004  0.16140989  1
  O  O205  1  0.00165344  0.87624302  0.41967832  1
  O  O206  1  -0.00897231  0.87676559  0.66609170  1
  O  O207  1  0.00823520  0.87537426  0.91120140  1
  O  O208  1  0.24934821  0.12246006  0.17247852  1
  O  O209  1  0.24589237  0.12286882  0.42410710  1
  O  O210  1  0.25210880  0.12496772  0.65194420  1
  O  O211  1  0.24671914  0.12643783  0.90976696  1
  O  O212  1  0.24547014  0.37502068  0.17077310  1
  O  O213  1  0.24281344  0.37210665  0.41931991  1
  O  O214  1  0.25148360  0.37329438  0.65788222  1
  O  O215  1  0.24630566  0.37317488  0.90802491  1
  O  O216  1  0.24983742  0.62755088  0.17140031  1
  O  O217  1  0.24732086  0.62609531  0.42204531  1
  O  O218  1  0.25310619  0.62572979  0.65615330  1
  O  O219  1  0.24297772  0.62393060  0.90400983  1
  O  O220  1  0.24603676  0.87484630  0.17126503  1
  O  O221  1  0.24259155  0.87724294  0.41713201  1
  O  O222  1  0.25090582  0.87573285  0.66078881  1
  O  O223  1  0.24809065  0.87649066  0.90971711  1
  O  O224  1  0.48734208  0.12237621  0.15936768  1
  O  O225  1  0.49562965  0.12102169  0.41219621  1
  O  O226  1  0.50754393  0.12075108  0.66326245  1
  O  O227  1  0.48969340  0.12629900  0.90408339  1
  O  O228  1  0.49291616  0.37453445  0.16464348  1
  O  O229  1  0.50316403  0.37221030  0.42018629  1
  O  O230  1  0.50217059  0.37261972  0.66512250  1
  O  O231  1  0.49779645  0.37257308  0.89796355  1
  O  O232  1  0.48956384  0.62741633  0.15786910  1
  O  O233  1  0.50832559  0.62808407  0.41351184  1
  O  O234  1  0.50792406  0.62851613  0.66447828  1
  O  O235  1  0.49652087  0.62191132  0.90785280  1
  O  O236  1  0.49136456  0.87593187  0.16111852  1
  O  O237  1  0.50705788  0.87630690  0.41754500  1
  O  O238  1  0.51024852  0.87904689  0.66750990  1
  O  O239  1  0.49371480  0.87886680  0.90722505  1
  O  O240  1  0.75326348  0.12809980  0.15629789  1
  O  O241  1  0.75064581  0.12441528  0.41638153  1
  O  O242  1  0.74867129  0.12169977  0.67116245  1
  O  O243  1  0.75299200  0.12892741  0.90850797  1
  O  O244  1  0.75975985  0.37477886  0.15838687  1
  O  O245  1  0.75312293  0.37243291  0.41641408  1
  O  O246  1  0.75858887  0.36957709  0.66632831  1
  O  O247  1  0.76034177  0.37294668  0.90410992  1
  O  O248  1  0.75229859  0.62213798  0.15856495  1
  O  O249  1  0.74886576  0.62512168  0.41974462  1
  O  O250  1  0.74284364  0.63047012  0.67265947  1
  O  O251  1  0.75264114  0.62094049  0.90384470  1
  O  O252  1  0.75046590  0.87578190  0.15087032  1
  O  O253  1  0.74685178  0.87756540  0.41528414  1
  O  O254  1  0.75128991  0.87747697  0.67277907  1
  O  O255  1  0.75164857  0.87611501  0.91070463  1
  O  O256  1  0.13109595  0.12563238  0.04956516  1
  O  O257  1  0.12734690  0.12613100  0.30695687  1
  O  O258  1  0.11718655  0.12303416  0.54542113  1
  O  O259  1  0.12680864  0.12640120  0.79029889  1
  O  O260  1  0.12654796  0.37627593  0.04842208  1
  O  O261  1  0.12137175  0.37165176  0.30772333  1
  O  O262  1  0.11569870  0.37060464  0.54342596  1
  O  O263  1  0.12954421  0.37409974  0.77218418  1
  O  O264  1  0.13096414  0.62316119  0.05130129  1
  O  O265  1  0.12828224  0.61992291  0.29058385  1
  O  O266  1  0.11952496  0.62729351  0.54398854  1
  O  O267  1  0.12221836  0.62345482  0.78715269  1
  O  O268  1  0.13232610  0.87494189  0.04897878  1
  O  O269  1  0.12093997  0.87665984  0.30439425  1
  O  O270  1  0.11662318  0.87879193  0.54490168  1
  O  O271  1  0.13070204  0.87385151  0.77321446  1
  O  O272  1  0.36669690  0.12207452  0.04813184  1
  O  O273  1  0.37069519  0.12150940  0.30487046  1
  O  O274  1  0.37957899  0.12131960  0.54649947  1
  O  O275  1  0.37263948  0.12570347  0.79052714  1
  O  O276  1  0.36231842  0.37444999  0.03516340  1
  O  O277  1  0.37546454  0.36643852  0.29385104  1
  O  O278  1  0.38082008  0.37081329  0.53660100  1
  O  O279  1  0.36709013  0.37413589  0.77450229  1
  O  O280  1  0.36578572  0.62787886  0.04887609  1
  O  O281  1  0.36937193  0.62854569  0.28841656  1
  O  O282  1  0.37896832  0.62992812  0.55067543  1
  O  O283  1  0.38147706  0.62024917  0.77405718  1
  O  O284  1  0.36432380  0.87658260  0.04875304  1
  O  O285  1  0.37431410  0.88070432  0.28985441  1
  O  O286  1  0.38419914  0.87814246  0.54516263  1
  O  O287  1  0.36910499  0.87826436  0.77359765  1
  O  O288  1  0.61784344  0.13694483  0.02766572  1
  O  O289  1  0.62652605  0.12368381  0.29716622  1
  O  O290  1  0.62798630  0.11868837  0.55412227  1
  O  O291  1  0.62547227  0.12208941  0.78632659  1
  O  O292  1  0.62184324  0.36924682  0.03415520  1
  O  O293  1  0.61875781  0.37435131  0.28828687  1
  O  O294  1  0.62719083  0.36590255  0.54369465  1
  O  O295  1  0.63214026  0.36887242  0.77321553  1
  O  O296  1  0.62576195  0.61865320  0.02641130  1
  O  O297  1  0.62582201  0.62542219  0.29889186  1
  O  O298  1  0.62941466  0.63258816  0.55415613  1
  O  O299  1  0.62089517  0.62290003  0.78208792  1
  O  O300  1  0.61600604  0.87810542  0.02492423  1
  O  O301  1  0.62511723  0.87533832  0.29669856  1
  O  O302  1  0.63019694  0.87529481  0.55823496  1
  O  O303  1  0.62944043  0.88274495  0.78615158  1
  O  O304  1  0.89038995  0.13271503  0.02917334  1
  O  O305  1  0.87792342  0.12729074  0.29982001  1
  O  O306  1  0.86966806  0.12332404  0.55657918  1
  O  O307  1  0.88613006  0.12711945  0.78358147  1
  O  O308  1  0.88423855  0.37658666  0.04740532  1
  O  O309  1  0.87702725  0.37484299  0.30001455  1
  O  O310  1  0.87327156  0.37367516  0.54974868  1
  O  O311  1  0.87883643  0.37516514  0.79009854  1
  O  O312  1  0.88587034  0.61624721  0.02964660  1
  O  O313  1  0.87419968  0.62362004  0.30205763  1
  O  O314  1  0.86114539  0.62572076  0.54552256  1
  O  O315  1  0.88277674  0.62125789  0.77749414  1
  O  O316  1  0.88672032  0.87547917  0.02478212  1
  O  O317  1  0.88419314  0.87556309  0.28642067  1
  O  O318  1  0.86966684  0.87783355  0.55498827  1
  O  O319  1  0.88238952  0.87433688  0.78945800  1
