# generated using pymatgen
data_VFe(PbO3)2
_symmetry_space_group_name_H-M   'P 1'
_cell_length_a   15.37501076
_cell_length_b   15.38087018
_cell_length_c   18.53277782
_cell_angle_alpha   89.99662108
_cell_angle_beta   90.03585853
_cell_angle_gamma   89.98394380
_symmetry_Int_Tables_number   1
_chemical_formula_structural   VFe(PbO3)2
_chemical_formula_sum   'V32 Fe32 Pb64 O192'
_cell_volume   4382.64961721
_cell_formula_units_Z   32
loop_
 _symmetry_equiv_pos_site_id
 _symmetry_equiv_pos_as_xyz
  1  'x, y, z'
loop_
 _atom_site_type_symbol
 _atom_site_label
 _atom_site_symmetry_multiplicity
 _atom_site_fract_x
 _atom_site_fract_y
 _atom_site_fract_z
 _atom_site_occupancy
  V  V0  1  0.87608362  0.87372709  0.89104550  1
  V  V1  1  0.37249080  0.87614269  0.13828999  1
  V  V2  1  0.37697937  0.37212591  0.64041601  1
  V  V3  1  0.37689168  0.62097249  0.63907942  1
  V  V4  1  0.62733002  0.37196220  0.64050831  1
  V  V5  1  0.87425021  0.12790009  0.64230424  1
  V  V6  1  0.12531100  0.38125204  0.13842352  1
  V  V7  1  0.37653380  0.62716386  0.89308143  1
  V  V8  1  0.12675829  0.63193802  0.13611673  1
  V  V9  1  0.12660066  0.12397761  0.38949798  1
  V  V10  1  0.37216300  0.12843568  0.13564711  1
  V  V11  1  0.37494254  0.37218531  0.89283446  1
  V  V12  1  0.12516831  0.87366689  0.39289296  1
  V  V13  1  0.62546768  0.62552928  0.38775511  1
  V  V14  1  0.12524169  0.87397151  0.88734753  1
  V  V15  1  0.87732754  0.87536244  0.13615629  1
  V  V16  1  0.37532358  0.11747954  0.88905451  1
  V  V17  1  0.87493487  0.37715598  0.88797626  1
  V  V18  1  0.62549129  0.87469871  0.89207325  1
  V  V19  1  0.12751651  0.12327308  0.64412392  1
  V  V20  1  0.87081165  0.87405517  0.38689603  1
  V  V21  1  0.12463341  0.62518165  0.63907046  1
  V  V22  1  0.12560865  0.62636480  0.39024586  1
  V  V23  1  0.37130602  0.62525701  0.38945180  1
  V  V24  1  0.62686256  0.87655126  0.63961759  1
  V  V25  1  0.12776063  0.12600026  0.13692199  1
  V  V26  1  0.62521657  0.62238917  0.89072961  1
  V  V27  1  0.12402649  0.62189128  0.88749521  1
  V  V28  1  0.38057828  0.12794076  0.64083958  1
  V  V29  1  0.62273355  0.62688564  0.13529090  1
  V  V30  1  0.37341435  0.12393876  0.38711336  1
  V  V31  1  0.87313490  0.87806989  0.64115070  1
  Fe  Fe32  1  0.62428369  0.37768594  0.13102656  1
  Fe  Fe33  1  0.88047937  0.12130151  0.37813720  1
  Fe  Fe34  1  0.87165234  0.62484350  0.63253161  1
  Fe  Fe35  1  0.87665313  0.62605445  0.13261663  1
  Fe  Fe36  1  0.37796299  0.87337063  0.88035129  1
  Fe  Fe37  1  0.12475969  0.37459122  0.64206307  1
  Fe  Fe38  1  0.12471886  0.87743984  0.13197075  1
  Fe  Fe39  1  0.37386346  0.87457834  0.38892098  1
  Fe  Fe40  1  0.12616255  0.12816298  0.88492798  1
  Fe  Fe41  1  0.12040077  0.87462146  0.63880678  1
  Fe  Fe42  1  0.37254439  0.37687381  0.13553895  1
  Fe  Fe43  1  0.62605513  0.12305816  0.37756423  1
  Fe  Fe44  1  0.12403425  0.37714668  0.88222859  1
  Fe  Fe45  1  0.62394273  0.12522046  0.89634723  1
  Fe  Fe46  1  0.62654245  0.12364950  0.63565488  1
  Fe  Fe47  1  0.62331418  0.12365541  0.13494865  1
  Fe  Fe48  1  0.37311647  0.62558125  0.13197975  1
  Fe  Fe49  1  0.37502293  0.37458925  0.38328378  1
  Fe  Fe50  1  0.87828240  0.12460345  0.13508902  1
  Fe  Fe51  1  0.87767443  0.62782769  0.38954319  1
  Fe  Fe52  1  0.87610887  0.37499706  0.37846427  1
  Fe  Fe53  1  0.12808625  0.37589886  0.38475277  1
  Fe  Fe54  1  0.62227540  0.62431940  0.63447362  1
  Fe  Fe55  1  0.87415471  0.37280360  0.63467725  1
  Fe  Fe56  1  0.62299276  0.87263488  0.37666690  1
  Fe  Fe57  1  0.87236244  0.62719713  0.89348323  1
  Fe  Fe58  1  0.62458629  0.37655457  0.89770770  1
  Fe  Fe59  1  0.87775113  0.37669872  0.14008126  1
  Fe  Fe60  1  0.87437994  0.12520285  0.89242336  1
  Fe  Fe61  1  0.37429494  0.87652199  0.64236231  1
  Fe  Fe62  1  0.62312032  0.37522048  0.37786634  1
  Fe  Fe63  1  0.62758546  0.87278674  0.14471454  1
  Pb  Pb64  1  -0.00190609  0.00715965  -0.00020722  1
  Pb  Pb65  1  -0.00112996  0.00256838  0.24768120  1
  Pb  Pb66  1  0.00491868  -0.00515233  0.50094069  1
  Pb  Pb67  1  -0.00364419  0.01083239  0.75788194  1
  Pb  Pb68  1  -0.00609955  0.25015872  -0.00255864  1
  Pb  Pb69  1  -0.00716746  0.25028484  0.24969388  1
  Pb  Pb70  1  -0.00495220  0.25847699  0.49563317  1
  Pb  Pb71  1  0.00291430  0.24912908  0.75338145  1
  Pb  Pb72  1  -0.01147844  0.49917798  0.00381555  1
  Pb  Pb73  1  -0.00886650  0.49974506  0.25364894  1
  Pb  Pb74  1  -0.00616524  0.48885022  0.50003159  1
  Pb  Pb75  1  -0.00571641  0.49595767  0.74622441  1
  Pb  Pb76  1  0.00028399  0.74836225  0.00152109  1
  Pb  Pb77  1  -0.00412146  0.74581238  0.25078890  1
  Pb  Pb78  1  0.00055132  0.74959833  0.50288137  1
  Pb  Pb79  1  -0.00920241  0.74257437  0.75103691  1
  Pb  Pb80  1  0.24378402  -0.00839329  -0.00355130  1
  Pb  Pb81  1  0.25613119  -0.00395057  0.25061066  1
  Pb  Pb82  1  0.25259759  -0.00776540  0.50663484  1
  Pb  Pb83  1  0.24962150  -0.00310840  0.75098422  1
  Pb  Pb84  1  0.24921107  0.25607154  -0.00203805  1
  Pb  Pb85  1  0.24835187  0.25928508  0.25286170  1
  Pb  Pb86  1  0.24493263  0.25528069  0.50067062  1
  Pb  Pb87  1  0.24274698  0.24975505  0.75438903  1
  Pb  Pb88  1  0.25826991  0.50236390  0.00302663  1
  Pb  Pb89  1  0.25091942  0.49366770  0.25050157  1
  Pb  Pb90  1  0.24384874  0.49337770  0.50200683  1
  Pb  Pb91  1  0.24782331  0.49508886  0.75130771  1
  Pb  Pb92  1  0.24835326  0.75146262  -0.00294375  1
  Pb  Pb93  1  0.25625255  0.75586577  0.25052318  1
  Pb  Pb94  1  0.25413155  0.75929361  0.50790697  1
  Pb  Pb95  1  0.25336088  0.75345624  0.74840305  1
  Pb  Pb96  1  0.51379515  -0.00456751  0.00931410  1
  Pb  Pb97  1  0.50685611  -0.00013519  0.25039596  1
  Pb  Pb98  1  0.50370760  -0.00206702  0.49442174  1
  Pb  Pb99  1  0.50209583  -0.00005220  0.75094434  1
  Pb  Pb100  1  0.50636758  0.25178162  0.00546080  1
  Pb  Pb101  1  0.51192722  0.25738847  0.24474019  1
  Pb  Pb102  1  0.50916836  0.24810954  0.49188572  1
  Pb  Pb103  1  0.51545575  0.25086783  0.76228029  1
  Pb  Pb104  1  0.49187862  0.49774608  0.00680395  1
  Pb  Pb105  1  0.49668351  0.49326633  0.24425490  1
  Pb  Pb106  1  0.50433075  0.50229048  0.49546777  1
  Pb  Pb107  1  0.50624683  0.49144481  0.75318343  1
  Pb  Pb108  1  0.50349317  0.75425631  0.00324473  1
  Pb  Pb109  1  0.49938135  0.75591452  0.24962932  1
  Pb  Pb110  1  0.50235264  0.75085209  0.49835049  1
  Pb  Pb111  1  0.49619172  0.75228880  0.74856978  1
  Pb  Pb112  1  0.74882058  0.01069843  0.00738801  1
  Pb  Pb113  1  0.74507885  0.01207920  0.24556062  1
  Pb  Pb114  1  0.74129271  0.00842803  0.49239222  1
  Pb  Pb115  1  0.75187893  0.00977421  0.75756230  1
  Pb  Pb116  1  0.74658661  0.24995144  0.00355695  1
  Pb  Pb117  1  0.75018438  0.25320163  0.23869681  1
  Pb  Pb118  1  0.75336361  0.24934937  0.48405625  1
  Pb  Pb119  1  0.74165439  0.24468585  0.75918879  1
  Pb  Pb120  1  0.75468782  0.48845701  0.00842676  1
  Pb  Pb121  1  0.75280873  0.49438082  0.24515643  1
  Pb  Pb122  1  0.76018953  0.49335563  0.49439253  1
  Pb  Pb123  1  0.75409195  0.50240741  0.74765232  1
  Pb  Pb124  1  0.74457710  0.75429808  0.00495689  1
  Pb  Pb125  1  0.75694632  0.74287498  0.24855307  1
  Pb  Pb126  1  0.74743483  0.73727641  0.50307965  1
  Pb  Pb127  1  0.75330196  0.74182420  0.75118943  1
  O  O128  1  0.12932254  0.00559118  0.16214315  1
  O  O129  1  0.12682663  0.00005213  0.41693165  1
  O  O130  1  0.12164321  0.00524467  0.66726289  1
  O  O131  1  0.12654955  -0.00364271  0.90988795  1
  O  O132  1  0.12978025  0.24404158  0.16041805  1
  O  O133  1  0.12766842  0.24202293  0.41192499  1
  O  O134  1  0.12272515  0.24244674  0.66654999  1
  O  O135  1  0.12733014  0.25404576  0.91469961  1
  O  O136  1  0.12799861  0.49785605  0.15643395  1
  O  O137  1  0.12961389  0.50899986  0.41341394  1
  O  O138  1  0.12699278  0.50772044  0.66579839  1
  O  O139  1  0.12627200  0.50704594  0.90923535  1
  O  O140  1  0.12600386  0.74743077  0.15858269  1
  O  O141  1  0.12920367  0.74659197  0.41836199  1
  O  O142  1  0.12535716  0.74285060  0.66466961  1
  O  O143  1  0.12563864  0.74929112  0.91435081  1
  O  O144  1  0.36950317  -0.00298695  0.16197044  1
  O  O145  1  0.36924176  0.00638605  0.41563551  1
  O  O146  1  0.37294087  0.00970114  0.66740317  1
  O  O147  1  0.37340753  0.00199410  0.90664393  1
  O  O148  1  0.36945222  0.24363084  0.15582925  1
  O  O149  1  0.37026268  0.24093878  0.41154545  1
  O  O150  1  0.37278469  0.24454543  0.66753021  1
  O  O151  1  0.37433650  0.25490363  0.91196669  1
  O  O152  1  0.36980316  0.50287240  0.16366285  1
  O  O153  1  0.37466632  0.50849866  0.41335865  1
  O  O154  1  0.37680129  0.49625680  0.66847763  1
  O  O155  1  0.37470818  0.50244572  0.91637343  1
  O  O156  1  0.36975981  0.75423423  0.16093657  1
  O  O157  1  0.37334690  0.74247415  0.41780758  1
  O  O158  1  0.37578647  0.74460264  0.66533220  1
  O  O159  1  0.37598870  0.74872302  0.91332547  1
  O  O160  1  0.62072426  -0.00195336  0.16257708  1
  O  O161  1  0.62348248  -0.00263970  0.40943776  1
  O  O162  1  0.62773589  -0.00483264  0.66734054  1
  O  O163  1  0.62367992  -0.00726505  0.91535234  1
  O  O164  1  0.62067332  0.24936034  0.15404829  1
  O  O165  1  0.62259581  0.24764411  0.40673294  1
  O  O166  1  0.62409971  0.25191474  0.66817192  1
  O  O167  1  0.62196352  0.25070948  0.92114489  1
  O  O168  1  0.62437136  0.51017335  0.15829465  1
  O  O169  1  0.62173477  0.50743935  0.41016399  1
  O  O170  1  0.62256579  0.49139075  0.66276170  1
  O  O171  1  0.62318586  0.50868421  0.91152505  1
  O  O172  1  0.62409756  0.74336054  0.16587025  1
  O  O173  1  0.62182409  0.74567465  0.41181238  1
  O  O174  1  0.62486978  0.75941593  0.66299329  1
  O  O175  1  0.62313811  0.75259381  0.91833716  1
  O  O176  1  0.88010493  -0.00780360  0.15998847  1
  O  O177  1  0.88267139  -0.00998287  0.41127387  1
  O  O178  1  0.87343288  -0.00093439  0.66855997  1
  O  O179  1  0.87326418  -0.01105240  0.91629769  1
  O  O180  1  0.88078800  0.24971833  0.16041833  1
  O  O181  1  0.88081346  0.24705945  0.40652675  1
  O  O182  1  0.87506239  0.24294859  0.66289341  1
  O  O183  1  0.87502548  0.25822300  0.91136081  1
  O  O184  1  0.88040722  0.50441512  0.16531918  1
  O  O185  1  0.87692644  0.50237751  0.41063804  1
  O  O186  1  0.87130772  0.49962380  0.66370610  1
  O  O187  1  0.87480232  0.49838313  0.91305764  1
  O  O188  1  0.88023731  0.75292101  0.16307138  1
  O  O189  1  0.87826245  0.75812967  0.41756391  1
  O  O190  1  0.87233797  0.75609176  0.66345832  1
  O  O191  1  0.87312557  0.75763254  0.91895887  1
  O  O192  1  0.01106104  0.12305310  0.16016794  1
  O  O193  1  0.00955910  0.12034640  0.41410206  1
  O  O194  1  -0.00343153  0.12217444  0.66648551  1
  O  O195  1  0.00120980  0.12397483  0.91603786  1
  O  O196  1  0.01142306  0.37330281  0.16335652  1
  O  O197  1  0.00384944  0.37666423  0.41185537  1
  O  O198  1  -0.00123680  0.37440182  0.66619978  1
  O  O199  1  -0.00526056  0.37858481  0.90934030  1
  O  O200  1  0.01143251  0.62403869  0.16388822  1
  O  O201  1  0.00973309  0.62974477  0.41372816  1
  O  O202  1  0.00411853  0.62567419  0.66009166  1
  O  O203  1  0.00707349  0.63027601  0.91221545  1
  O  O204  1  -0.00242155  0.87375221  0.16119348  1
  O  O205  1  0.00255730  0.87163164  0.41918052  1
  O  O206  1  -0.00925049  0.87555095  0.66503997  1
  O  O207  1  -0.00389155  0.87291144  0.91133059  1
  O  O208  1  0.25158098  0.12189089  0.16531532  1
  O  O209  1  0.24633120  0.12226725  0.41705808  1
  O  O210  1  0.24723912  0.12462013  0.66385655  1
  O  O211  1  0.25807957  0.12832564  0.91368783  1
  O  O212  1  0.24334899  0.37198932  0.16387675  1
  O  O213  1  0.25211842  0.37532967  0.41904545  1
  O  O214  1  0.25537317  0.37293757  0.66794316  1
  O  O215  1  0.25529653  0.38035725  0.91234478  1
  O  O216  1  0.24144952  0.62492364  0.16290615  1
  O  O217  1  0.25160548  0.62645676  0.41499223  1
  O  O218  1  0.24971111  0.62368003  0.66560216  1
  O  O219  1  0.24571307  0.62818272  0.91177010  1
  O  O220  1  0.25212134  0.87484204  0.16503779  1
  O  O221  1  0.24701870  0.87367827  0.42032017  1
  O  O222  1  0.24637085  0.87585317  0.66869419  1
  O  O223  1  0.24911511  0.87333328  0.90872016  1
  O  O224  1  0.48664379  0.12001917  0.15824952  1
  O  O225  1  0.49092976  0.12209187  0.40696647  1
  O  O226  1  0.49663414  0.12395540  0.66205547  1
  O  O227  1  0.48913662  0.12686231  0.91744760  1
  O  O228  1  0.49830949  0.37825878  0.15696852  1
  O  O229  1  0.49828260  0.37561392  0.41370011  1
  O  O230  1  0.50177174  0.37084473  0.66949894  1
  O  O231  1  0.49166721  0.37985126  0.91834011  1
  O  O232  1  0.50306349  0.62764512  0.15865549  1
  O  O233  1  0.49748659  0.62661567  0.41279526  1
  O  O234  1  0.49775545  0.62283015  0.66752708  1
  O  O235  1  0.50466560  0.62893941  0.91621305  1
  O  O236  1  0.48885126  0.87310318  0.16159170  1
  O  O237  1  0.49908470  0.87356283  0.41254498  1
  O  O238  1  0.50666841  0.87891011  0.66272014  1
  O  O239  1  0.50496723  0.87371584  0.91399120  1
  O  O240  1  0.75141971  0.12162086  0.15572272  1
  O  O241  1  0.75428226  0.11985027  0.40404727  1
  O  O242  1  0.75495654  0.12318917  0.66640260  1
  O  O243  1  0.75029647  0.12311443  0.91968205  1
  O  O244  1  0.74912463  0.37876750  0.15873000  1
  O  O245  1  0.74877448  0.37595589  0.40652153  1
  O  O246  1  0.74330012  0.37119142  0.66325485  1
  O  O247  1  0.75645671  0.37796964  0.91545547  1
  O  O248  1  0.74593001  0.62785933  0.15863409  1
  O  O249  1  0.74382467  0.62887029  0.40823924  1
  O  O250  1  0.74591421  0.62652163  0.66556566  1
  O  O251  1  0.74106054  0.63206228  0.91471757  1
  O  O252  1  0.76040285  0.87158725  0.16208967  1
  O  O253  1  0.75530315  0.87421021  0.40168603  1
  O  O254  1  0.75120742  0.87696214  0.66743025  1
  O  O255  1  0.74712143  0.87224165  0.91506393  1
  O  O256  1  0.13037051  0.12484918  0.04567982  1
  O  O257  1  0.12738345  0.12169648  0.29876236  1
  O  O258  1  0.12423567  0.12402817  0.55350161  1
  O  O259  1  0.12227058  0.12951277  0.78494958  1
  O  O260  1  0.12607162  0.37564575  0.04722218  1
  O  O261  1  0.13494760  0.37457116  0.28517060  1
  O  O262  1  0.13067196  0.37564594  0.54147989  1
  O  O263  1  0.12987867  0.37424755  0.78185156  1
  O  O264  1  0.12454725  0.62977652  0.04463354  1
  O  O265  1  0.12655560  0.62801183  0.29946026  1
  O  O266  1  0.12779894  0.62386825  0.54848980  1
  O  O267  1  0.12396628  0.62529379  0.79652720  1
  O  O268  1  0.13215100  0.87612643  0.03294742  1
  O  O269  1  0.12522734  0.87329415  0.30176366  1
  O  O270  1  0.12296489  0.87608993  0.53923259  1
  O  O271  1  0.12182378  0.87115233  0.79618513  1
  O  O272  1  0.36920379  0.12332643  0.04488115  1
  O  O273  1  0.36778243  0.12074657  0.29631031  1
  O  O274  1  0.37697553  0.12789709  0.55030724  1
  O  O275  1  0.37724048  0.12367329  0.79787202  1
  O  O276  1  0.36775480  0.38266480  0.03481768  1
  O  O277  1  0.36745380  0.37676038  0.28310589  1
  O  O278  1  0.37867832  0.37180708  0.54981706  1
  O  O279  1  0.37777980  0.37597185  0.80152497  1
  O  O280  1  0.36973607  0.62107909  0.03200491  1
  O  O281  1  0.37053992  0.62851512  0.29848678  1
  O  O282  1  0.37714303  0.62032739  0.54853436  1
  O  O283  1  0.37794019  0.62317684  0.80192862  1
  O  O284  1  0.37017076  0.87764499  0.04706578  1
  O  O285  1  0.36612096  0.87142787  0.28910235  1
  O  O286  1  0.36629087  0.87668225  0.54210228  1
  O  O287  1  0.38069202  0.87360947  0.78016203  1
  O  O288  1  0.61914535  0.11713960  0.03172442  1
  O  O289  1  0.61968983  0.11991807  0.27676576  1
  O  O290  1  0.62704405  0.11968361  0.53660820  1
  O  O291  1  0.62665196  0.13122003  0.79386125  1
  O  O292  1  0.62757978  0.38148548  0.02808054  1
  O  O293  1  0.61799735  0.37597440  0.27747752  1
  O  O294  1  0.62277729  0.36885899  0.54986462  1
  O  O295  1  0.61851953  0.36901766  0.79603286  1
  O  O296  1  0.62346301  0.63139531  0.04400294  1
  O  O297  1  0.62201695  0.62633542  0.29717694  1
  O  O298  1  0.62281054  0.63012721  0.53516068  1
  O  O299  1  0.62399823  0.62709770  0.79928704  1
  O  O300  1  0.62013975  0.87113856  0.04290372  1
  O  O301  1  0.61664379  0.87139501  0.27590145  1
  O  O302  1  0.62949673  0.87856399  0.54872684  1
  O  O303  1  0.62600335  0.87315970  0.80126920  1
  O  O304  1  0.88305160  0.11932350  0.03332102  1
  O  O305  1  0.88709439  0.11750521  0.27792298  1
  O  O306  1  0.87584399  0.12297211  0.55183024  1
  O  O307  1  0.87373376  0.11744185  0.79129762  1
  O  O308  1  0.87889473  0.38588611  0.03852176  1
  O  O309  1  0.88073665  0.37835535  0.27704481  1
  O  O310  1  0.87703782  0.37611076  0.53447080  1
  O  O311  1  0.87152884  0.37884457  0.79651774  1
  O  O312  1  0.88496844  0.62558045  0.03182941  1
  O  O313  1  0.88245556  0.63500735  0.28863410  1
  O  O314  1  0.86786896  0.62976425  0.53218827  1
  O  O315  1  0.87257653  0.63377909  0.79258534  1
  O  O316  1  0.87680105  0.87287708  0.04502705  1
  O  O317  1  0.88263344  0.86974694  0.29615439  1
  O  O318  1  0.87015713  0.88036601  0.55085003  1
  O  O319  1  0.87350817  0.87218070  0.79996795  1
