# generated using pymatgen
data_VFe(PbO3)2
_symmetry_space_group_name_H-M   'P 1'
_cell_length_a   15.37757881
_cell_length_b   15.37199588
_cell_length_c   18.51709884
_cell_angle_alpha   89.96828466
_cell_angle_beta   89.99115837
_cell_angle_gamma   89.99330775
_symmetry_Int_Tables_number   1
_chemical_formula_structural   VFe(PbO3)2
_chemical_formula_sum   'V32 Fe32 Pb64 O192'
_cell_volume   4377.14658336
_cell_formula_units_Z   32
loop_
 _symmetry_equiv_pos_site_id
 _symmetry_equiv_pos_as_xyz
  1  'x, y, z'
loop_
 _atom_site_type_symbol
 _atom_site_label
 _atom_site_symmetry_multiplicity
 _atom_site_fract_x
 _atom_site_fract_y
 _atom_site_fract_z
 _atom_site_occupancy
  V  V0  1  0.62569627  0.87635345  0.38666008  1
  V  V1  1  0.12191021  0.87497562  0.63724875  1
  V  V2  1  0.37271535  0.37465765  0.63900987  1
  V  V3  1  0.87416501  0.87533018  0.38779229  1
  V  V4  1  0.87463336  0.87567073  0.63827771  1
  V  V5  1  0.87829739  0.62666587  0.38924406  1
  V  V6  1  0.37610471  0.62448305  0.88642973  1
  V  V7  1  0.37438761  0.62354817  0.14088213  1
  V  V8  1  0.62448650  0.62656793  0.89115651  1
  V  V9  1  0.87384302  0.62547573  0.64072102  1
  V  V10  1  0.62354987  0.12218575  0.89282456  1
  V  V11  1  0.37327573  0.12679594  0.39035264  1
  V  V12  1  0.62369493  0.12552109  0.14028252  1
  V  V13  1  0.37353810  0.12440492  0.88813445  1
  V  V14  1  0.87086234  0.37527524  0.88753459  1
  V  V15  1  0.87772060  0.37266891  0.14284229  1
  V  V16  1  0.62613368  0.87515269  0.63520021  1
  V  V17  1  0.62722562  0.37628830  0.63618235  1
  V  V18  1  0.12563764  0.12709459  0.13926207  1
  V  V19  1  0.12643817  0.37536644  0.39230496  1
  V  V20  1  0.37714574  0.37427114  0.39151134  1
  V  V21  1  0.87695919  0.62465102  0.13737063  1
  V  V22  1  0.12511314  0.87293777  0.14082247  1
  V  V23  1  0.62372187  0.87604628  0.89557122  1
  V  V24  1  0.37254973  0.37061416  0.14032009  1
  V  V25  1  0.87598757  0.12794369  0.38524074  1
  V  V26  1  0.12423620  0.62128850  0.14003085  1
  V  V27  1  0.87144635  0.12542551  0.89372640  1
  V  V28  1  0.87429949  0.87397780  0.89315833  1
  V  V29  1  0.87267833  0.12664989  0.63675101  1
  V  V30  1  0.62733255  0.62315049  0.14199729  1
  V  V31  1  0.62681524  0.62484622  0.38986105  1
  Fe  Fe32  1  0.37793395  0.87400671  0.88529554  1
  Fe  Fe33  1  0.87712467  0.37719110  0.39492854  1
  Fe  Fe34  1  0.87629343  0.87471622  0.13537942  1
  Fe  Fe35  1  0.12418158  0.12353719  0.63566022  1
  Fe  Fe36  1  0.62311013  0.37844687  0.14701488  1
  Fe  Fe37  1  0.12809940  0.37666141  0.13484793  1
  Fe  Fe38  1  0.12376091  0.87566828  0.38402822  1
  Fe  Fe39  1  0.62365708  0.37486651  0.38024441  1
  Fe  Fe40  1  0.62391665  0.62733826  0.63355777  1
  Fe  Fe41  1  0.12417147  0.12567215  0.39145092  1
  Fe  Fe42  1  0.12610432  0.37248204  0.87960327  1
  Fe  Fe43  1  0.37988990  0.37493449  0.88070243  1
  Fe  Fe44  1  0.62512918  0.12512868  0.38668821  1
  Fe  Fe45  1  0.12535974  0.62618686  0.38677112  1
  Fe  Fe46  1  0.12359373  0.62696424  0.87846156  1
  Fe  Fe47  1  0.37866763  0.62575571  0.63100013  1
  Fe  Fe48  1  0.12700903  0.87668925  0.88305866  1
  Fe  Fe49  1  0.37821977  0.12502321  0.63315205  1
  Fe  Fe50  1  0.37437704  0.87543738  0.14066314  1
  Fe  Fe51  1  0.87226786  0.37508746  0.62706654  1
  Fe  Fe52  1  0.86916678  0.62360212  0.88519913  1
  Fe  Fe53  1  0.62640935  0.12368345  0.63141449  1
  Fe  Fe54  1  0.62546873  0.37165462  0.88927870  1
  Fe  Fe55  1  0.37522067  0.87684110  0.62935426  1
  Fe  Fe56  1  0.37354976  0.12572492  0.13468378  1
  Fe  Fe57  1  0.37535775  0.62326121  0.38972403  1
  Fe  Fe58  1  0.12300535  0.12136564  0.88081282  1
  Fe  Fe59  1  0.12041591  0.37490114  0.64170587  1
  Fe  Fe60  1  0.12590483  0.62612676  0.63954150  1
  Fe  Fe61  1  0.87627552  0.12510938  0.13430298  1
  Fe  Fe62  1  0.37550124  0.87604405  0.38587506  1
  Fe  Fe63  1  0.62522574  0.87302176  0.13547895  1
  Pb  Pb64  1  -0.00428254  0.00088335  -0.00020095  1
  Pb  Pb65  1  0.00792785  -0.00126063  0.25009294  1
  Pb  Pb66  1  0.00442541  0.00299734  0.49715430  1
  Pb  Pb67  1  0.00733537  0.00029596  0.75305338  1
  Pb  Pb68  1  0.00174745  0.24882598  -0.00389979  1
  Pb  Pb69  1  0.00251074  0.24643493  0.25358734  1
  Pb  Pb70  1  0.01085172  0.25331138  0.50803748  1
  Pb  Pb71  1  0.00609517  0.25232590  0.74790054  1
  Pb  Pb72  1  0.00548986  0.49802430  -0.00893708  1
  Pb  Pb73  1  -0.00341430  0.49541104  0.25359849  1
  Pb  Pb74  1  0.01390683  0.49632987  0.50918422  1
  Pb  Pb75  1  0.00418407  0.49932954  0.74849405  1
  Pb  Pb76  1  0.00206969  0.74535718  -0.00606868  1
  Pb  Pb77  1  0.01037300  0.74844039  0.25264303  1
  Pb  Pb78  1  0.00951549  0.74609959  0.50091329  1
  Pb  Pb79  1  0.00589041  0.74895643  0.75397025  1
  Pb  Pb80  1  0.25564601  -0.00270430  -0.00253430  1
  Pb  Pb81  1  0.24982747  -0.00686285  0.25289595  1
  Pb  Pb82  1  0.25338849  -0.00198718  0.49812203  1
  Pb  Pb83  1  0.24885960  -0.00154595  0.74463102  1
  Pb  Pb84  1  0.24415079  0.25427575  -0.00664098  1
  Pb  Pb85  1  0.24281697  0.24335084  0.25362411  1
  Pb  Pb86  1  0.24393961  0.24932189  0.50667214  1
  Pb  Pb87  1  0.24402527  0.24580332  0.74535374  1
  Pb  Pb88  1  0.24432359  0.49317143  -0.00811473  1
  Pb  Pb89  1  0.25089139  0.50902866  0.25437832  1
  Pb  Pb90  1  0.24783809  0.50927476  0.50324677  1
  Pb  Pb91  1  0.24550606  0.50246479  0.74533082  1
  Pb  Pb92  1  0.25228991  0.75428864  -0.00571236  1
  Pb  Pb93  1  0.24656999  0.74559851  0.25563272  1
  Pb  Pb94  1  0.25586690  0.75106803  0.49260272  1
  Pb  Pb95  1  0.25135019  0.75295345  0.74344452  1
  Pb  Pb96  1  0.49020335  -0.00198598  0.00842893  1
  Pb  Pb97  1  0.49434344  -0.00475219  0.24854619  1
  Pb  Pb98  1  0.49019738  0.00375586  0.50281040  1
  Pb  Pb99  1  0.49343955  -0.00056462  0.74528735  1
  Pb  Pb100  1  0.49755533  0.24755057  0.00202997  1
  Pb  Pb101  1  0.50972424  0.24707406  0.25403776  1
  Pb  Pb102  1  0.50271465  0.24228247  0.49992819  1
  Pb  Pb103  1  0.50256348  0.25622477  0.74908498  1
  Pb  Pb104  1  0.50484096  0.49194102  0.00170103  1
  Pb  Pb105  1  0.49238684  0.50539046  0.25367877  1
  Pb  Pb106  1  0.50200464  0.51064891  0.50241536  1
  Pb  Pb107  1  0.50074439  0.49381119  0.74893175  1
  Pb  Pb108  1  0.49943744  0.75679672  0.00537510  1
  Pb  Pb109  1  0.48840655  0.75235967  0.25226071  1
  Pb  Pb110  1  0.49495051  0.74830664  0.49893661  1
  Pb  Pb111  1  0.49256044  0.75305579  0.74495742  1
  Pb  Pb112  1  0.75361504  -0.00460832  0.00836738  1
  Pb  Pb113  1  0.75138182  0.00360139  0.24446265  1
  Pb  Pb114  1  0.74758972  0.00532861  0.49760415  1
  Pb  Pb115  1  0.75105144  -0.00046048  0.74838651  1
  Pb  Pb116  1  0.75066605  0.24586488  0.00646231  1
  Pb  Pb117  1  0.74292948  0.25076687  0.25497411  1
  Pb  Pb118  1  0.74706324  0.25299008  0.49361356  1
  Pb  Pb119  1  0.74389899  0.25688424  0.74829344  1
  Pb  Pb120  1  0.74183013  0.49339798  0.00479584  1
  Pb  Pb121  1  0.75704529  0.48911738  0.25770821  1
  Pb  Pb122  1  0.75214110  0.49411540  0.49848946  1
  Pb  Pb123  1  0.75268746  0.50420392  0.74906997  1
  Pb  Pb124  1  0.74905120  0.75745851  0.00608209  1
  Pb  Pb125  1  0.75143715  0.75189670  0.24670563  1
  Pb  Pb126  1  0.74483454  0.74543963  0.50126206  1
  Pb  Pb127  1  0.75355589  0.74651696  0.75200329  1
  O  O128  1  0.12367578  0.00061506  0.16139293  1
  O  O129  1  0.12082395  0.00036292  0.41477319  1
  O  O130  1  0.11847285  -0.00579939  0.66027273  1
  O  O131  1  0.12266164  -0.00008262  0.91628401  1
  O  O132  1  0.12541131  0.24729129  0.16343085  1
  O  O133  1  0.12683103  0.25514852  0.41854268  1
  O  O134  1  0.12156710  0.24815638  0.66359759  1
  O  O135  1  0.12414689  0.24691157  0.91129166  1
  O  O136  1  0.12635249  0.50217939  0.16413619  1
  O  O137  1  0.12528234  0.49513432  0.41370717  1
  O  O138  1  0.12210370  0.50068559  0.66523090  1
  O  O139  1  0.12470620  0.49998248  0.90778145  1
  O  O140  1  0.12539761  0.75151809  0.16364919  1
  O  O141  1  0.12330414  0.75113352  0.41667470  1
  O  O142  1  0.12004881  0.75651966  0.66112309  1
  O  O143  1  0.12428394  0.75024773  0.91449481  1
  O  O144  1  0.37359459  0.00298160  0.16753931  1
  O  O145  1  0.37722046  0.00798020  0.40897696  1
  O  O146  1  0.37620129  -0.00165720  0.66406400  1
  O  O147  1  0.38100162  0.00559330  0.91419208  1
  O  O148  1  0.37273918  0.25467892  0.16194051  1
  O  O149  1  0.37251687  0.25277166  0.41771191  1
  O  O150  1  0.37978735  0.25658631  0.66172649  1
  O  O151  1  0.38150935  0.24150572  0.91045282  1
  O  O152  1  0.37303235  0.49962202  0.16833031  1
  O  O153  1  0.37525421  0.49067708  0.41501540  1
  O  O154  1  0.38136133  0.49265225  0.66243138  1
  O  O155  1  0.38107983  0.50795328  0.91038992  1
  O  O156  1  0.37407807  0.74462441  0.16461124  1
  O  O157  1  0.37896665  0.75022178  0.40981451  1
  O  O158  1  0.37695979  0.75328063  0.65933742  1
  O  O159  1  0.38098181  0.74203881  0.91505193  1
  O  O160  1  0.62651929  0.00615258  0.15986113  1
  O  O161  1  0.63011406  -0.00653360  0.40703802  1
  O  O162  1  0.63010327  -0.00738701  0.66230750  1
  O  O163  1  0.62682903  0.00330164  0.91904932  1
  O  O164  1  0.62571819  0.24780907  0.16484856  1
  O  O165  1  0.62608922  0.25103239  0.41255391  1
  O  O166  1  0.62897772  0.25527788  0.65981217  1
  O  O167  1  0.62593488  0.24034761  0.91818033  1
  O  O168  1  0.62499905  0.50845680  0.17102988  1
  O  O169  1  0.62494058  0.50613561  0.40781988  1
  O  O170  1  0.62719885  0.49435618  0.65957482  1
  O  O171  1  0.62504121  0.50526215  0.91522184  1
  O  O172  1  0.62475652  0.74008484  0.16611415  1
  O  O173  1  0.62805079  0.75115016  0.41433793  1
  O  O174  1  0.62846490  0.75856013  0.66203129  1
  O  O175  1  0.62511046  0.74710944  0.91719445  1
  O  O176  1  0.87722399  0.00109261  0.16493506  1
  O  O177  1  0.87408646  0.00011266  0.41093739  1
  O  O178  1  0.87250868  -0.00118623  0.66649842  1
  O  O179  1  0.87026454  -0.00287235  0.91736312  1
  O  O180  1  0.87750046  0.25570212  0.16311647  1
  O  O181  1  0.87268078  0.24367826  0.40663371  1
  O  O182  1  0.86922161  0.24300625  0.65520385  1
  O  O183  1  0.87051529  0.25312174  0.91645436  1
  O  O184  1  0.87731328  0.50040012  0.16888725  1
  O  O185  1  0.87303001  0.51217345  0.41585435  1
  O  O186  1  0.86921180  0.50702993  0.65875147  1
  O  O187  1  0.87071396  0.49192000  0.91113591  1
  O  O188  1  0.87592512  0.74398189  0.16303774  1
  O  O189  1  0.87086188  0.74567387  0.41516296  1
  O  O190  1  0.87178024  0.75124232  0.66723656  1
  O  O191  1  0.86969219  0.75538802  0.91270590  1
  O  O192  1  0.00707082  0.12707500  0.16435704  1
  O  O193  1  -0.00891898  0.12531157  0.41354495  1
  O  O194  1  -0.01168713  0.12172012  0.66152350  1
  O  O195  1  -0.00671647  0.12436701  0.91395323  1
  O  O196  1  -0.00249076  0.37736548  0.16593706  1
  O  O197  1  0.00821355  0.37505211  0.41331075  1
  O  O198  1  -0.00879428  0.37520360  0.66336458  1
  O  O199  1  -0.00954856  0.37248902  0.90851118  1
  O  O200  1  0.00060580  0.62433604  0.16497425  1
  O  O201  1  -0.00594230  0.62765488  0.41004549  1
  O  O202  1  -0.00996896  0.62855394  0.66256570  1
  O  O203  1  -0.00412974  0.62504042  0.91170783  1
  O  O204  1  0.00647795  0.87398009  0.16351054  1
  O  O205  1  -0.00840930  0.87214088  0.41440042  1
  O  O206  1  -0.00196997  0.87427088  0.66531706  1
  O  O207  1  -0.00845880  0.87561431  0.91212156  1
  O  O208  1  0.24273192  0.12496254  0.16480283  1
  O  O209  1  0.25577995  0.12801459  0.41442548  1
  O  O210  1  0.25097803  0.12446974  0.66025944  1
  O  O211  1  0.25700210  0.12264109  0.90549254  1
  O  O212  1  0.25598128  0.37690812  0.16713407  1
  O  O213  1  0.24920478  0.37425363  0.41823382  1
  O  O214  1  0.25600576  0.37471874  0.65820228  1
  O  O215  1  0.25452008  0.37397314  0.90874856  1
  O  O216  1  0.24852587  0.62517056  0.16752269  1
  O  O217  1  0.24987813  0.62200703  0.41461754  1
  O  O218  1  0.25364461  0.62413683  0.66078839  1
  O  O219  1  0.25858291  0.62589565  0.90552771  1
  O  O220  1  0.24238892  0.87550239  0.16484025  1
  O  O221  1  0.25011416  0.87843041  0.41192738  1
  O  O222  1  0.24078471  0.87616181  0.65396290  1
  O  O223  1  0.25365130  0.87463835  0.91398062  1
  O  O224  1  0.50490365  0.12788766  0.16264304  1
  O  O225  1  0.49409879  0.12900685  0.41062307  1
  O  O226  1  0.50433691  0.12399654  0.66360002  1
  O  O227  1  0.50488508  0.12260102  0.91501538  1
  O  O228  1  0.48996346  0.37825400  0.16608378  1
  O  O229  1  0.49439020  0.37229178  0.41048989  1
  O  O230  1  0.50685322  0.37371304  0.66032326  1
  O  O231  1  0.50114893  0.37331763  0.91951668  1
  O  O232  1  0.50151574  0.62263792  0.16543714  1
  O  O233  1  0.50761477  0.62609227  0.41145391  1
  O  O234  1  0.50213683  0.62537304  0.66496087  1
  O  O235  1  0.50500592  0.62601537  0.91662452  1
  O  O236  1  0.50229127  0.87367851  0.16619492  1
  O  O237  1  0.51087814  0.87457339  0.40796789  1
  O  O238  1  0.50907977  0.87671353  0.65603072  1
  O  O239  1  0.50324603  0.87418682  0.91954275  1
  O  O240  1  0.74595190  0.12801808  0.16255895  1
  O  O241  1  0.75741218  0.12149208  0.41048697  1
  O  O242  1  0.75405248  0.12047467  0.66551128  1
  O  O243  1  0.74639716  0.12373488  0.92094628  1
  O  O244  1  0.75841447  0.37858834  0.16665408  1
  O  O245  1  0.74788315  0.37903376  0.41197681  1
  O  O246  1  0.74721206  0.37533715  0.66154633  1
  O  O247  1  0.75283953  0.37260446  0.91880104  1
  O  O248  1  0.74867428  0.62351377  0.16271548  1
  O  O249  1  0.74848472  0.62758381  0.41374731  1
  O  O250  1  0.75125151  0.62886800  0.66575051  1
  O  O251  1  0.74185992  0.62549933  0.91771569  1
  O  O252  1  0.74966609  0.87258678  0.16622966  1
  O  O253  1  0.74901168  0.87230058  0.41579305  1
  O  O254  1  0.75018947  0.87535586  0.66587814  1
  O  O255  1  0.74990123  0.87557708  0.91953145  1
  O  O256  1  0.12555870  0.12689366  0.04834684  1
  O  O257  1  0.12304863  0.13312244  0.29097958  1
  O  O258  1  0.11803814  0.13073695  0.53394846  1
  O  O259  1  0.11982267  0.11977750  0.78019964  1
  O  O260  1  0.13128954  0.37562646  0.03525161  1
  O  O261  1  0.12947984  0.37153038  0.30098006  1
  O  O262  1  0.11767102  0.37374652  0.53955489  1
  O  O263  1  0.12122078  0.37132075  0.77885828  1
  O  O264  1  0.12529105  0.62411590  0.04886111  1
  O  O265  1  0.12712801  0.63291399  0.28584584  1
  O  O266  1  0.11708494  0.61974219  0.53793346  1
  O  O267  1  0.12120843  0.63028775  0.77788442  1
  O  O268  1  0.12560611  0.87209647  0.04988960  1
  O  O269  1  0.12098610  0.87423712  0.28336648  1
  O  O270  1  0.11441099  0.87486254  0.54613105  1
  O  O271  1  0.12156128  0.87670441  0.78303655  1
  O  O272  1  0.37743284  0.12249774  0.03519628  1
  O  O273  1  0.37085129  0.13203700  0.29912617  1
  O  O274  1  0.38352513  0.12115577  0.53276915  1
  O  O275  1  0.38018323  0.12162749  0.79705055  1
  O  O276  1  0.37228084  0.37480348  0.04886728  1
  O  O277  1  0.37209596  0.37192946  0.30087027  1
  O  O278  1  0.37760932  0.37571846  0.54802566  1
  O  O279  1  0.38825993  0.37527088  0.78152262  1
  O  O280  1  0.37323942  0.62038255  0.05013965  1
  O  O281  1  0.37528640  0.61748734  0.28819813  1
  O  O282  1  0.38452655  0.62141360  0.52936511  1
  O  O283  1  0.38228164  0.62768404  0.79549787  1
  O  O284  1  0.37641437  0.87772761  0.03953908  1
  O  O285  1  0.37881598  0.87969519  0.28423559  1
  O  O286  1  0.37918202  0.88469463  0.52858306  1
  O  O287  1  0.37941992  0.87316805  0.78565105  1
  O  O288  1  0.62408831  0.12910398  0.04897554  1
  O  O289  1  0.62517309  0.13224350  0.28648221  1
  O  O290  1  0.62959067  0.12305573  0.53110353  1
  O  O291  1  0.62682117  0.12192788  0.80205637  1
  O  O292  1  0.62598869  0.38572309  0.04628841  1
  O  O293  1  0.62743430  0.36974461  0.27843465  1
  O  O294  1  0.62783050  0.37605690  0.54490097  1
  O  O295  1  0.62638251  0.36719320  0.78960654  1
  O  O296  1  0.62545108  0.62060229  0.05088941  1
  O  O297  1  0.62837810  0.63016050  0.29930908  1
  O  O298  1  0.62231537  0.62884293  0.53372816  1
  O  O299  1  0.62494592  0.62749970  0.80014274  1
  O  O300  1  0.62808898  0.86700060  0.03523840  1
  O  O301  1  0.63041410  0.87086755  0.29570839  1
  O  O302  1  0.63022638  0.87568026  0.54404709  1
  O  O303  1  0.62469407  0.87581522  0.80467199  1
  O  O304  1  0.87479381  0.12718344  0.03436263  1
  O  O305  1  0.87862339  0.12528471  0.29361828  1
  O  O306  1  0.87013549  0.12022802  0.54570633  1
  O  O307  1  0.86777214  0.12509449  0.80289519  1
  O  O308  1  0.87700407  0.37683602  0.05195906  1
  O  O309  1  0.87922254  0.38684167  0.29372278  1
  O  O310  1  0.86996221  0.37828073  0.52620532  1
  O  O311  1  0.86528972  0.37247712  0.79654661  1
  O  O312  1  0.87631798  0.62084986  0.04641385  1
  O  O313  1  0.87507746  0.62532238  0.29797578  1
  O  O314  1  0.87099241  0.63042550  0.54972150  1
  O  O315  1  0.86281583  0.62429153  0.78593062  1
  O  O316  1  0.87061818  0.87644005  0.03568538  1
  O  O317  1  0.87300602  0.87235010  0.29672487  1
  O  O318  1  0.87458590  0.87467319  0.54754712  1
  O  O319  1  0.87001879  0.87774478  0.80207695  1
