# generated using pymatgen
data_VFe(PbO3)2
_symmetry_space_group_name_H-M   'P 1'
_cell_length_a   15.37827515
_cell_length_b   15.36962292
_cell_length_c   18.52806616
_cell_angle_alpha   90.03844303
_cell_angle_beta   90.05021837
_cell_angle_gamma   89.99950140
_symmetry_Int_Tables_number   1
_chemical_formula_structural   VFe(PbO3)2
_chemical_formula_sum   'V32 Fe32 Pb64 O192'
_cell_volume   4379.25936888
_cell_formula_units_Z   32
loop_
 _symmetry_equiv_pos_site_id
 _symmetry_equiv_pos_as_xyz
  1  'x, y, z'
loop_
 _atom_site_type_symbol
 _atom_site_label
 _atom_site_symmetry_multiplicity
 _atom_site_fract_x
 _atom_site_fract_y
 _atom_site_fract_z
 _atom_site_occupancy
  V  V0  1  0.62619609  0.37568306  0.13738730  1
  V  V1  1  0.62416981  0.12253410  0.89037271  1
  V  V2  1  0.37614605  0.12430698  0.89082006  1
  V  V3  1  0.87606287  0.37695303  0.38841419  1
  V  V4  1  0.37525867  0.62509436  0.64004906  1
  V  V5  1  0.62935078  0.37610923  0.38666917  1
  V  V6  1  0.37460972  0.37395678  0.14170127  1
  V  V7  1  0.87359256  0.87461844  0.63484951  1
  V  V8  1  0.37428046  0.12571972  0.14556693  1
  V  V9  1  0.12254813  0.87303693  0.38768211  1
  V  V10  1  0.37604707  0.87588964  0.63548698  1
  V  V11  1  0.12466902  0.87530561  0.14323391  1
  V  V12  1  0.12611043  0.37467854  0.89106000  1
  V  V13  1  0.87666492  0.87449983  0.14303563  1
  V  V14  1  0.37320064  0.87804244  0.89155933  1
  V  V15  1  0.12360896  0.62905195  0.88921065  1
  V  V16  1  0.62611387  0.62411082  0.38734946  1
  V  V17  1  0.87546357  0.87518379  0.88948200  1
  V  V18  1  0.87792735  0.37282800  0.64111322  1
  V  V19  1  0.87581828  0.12464189  0.89063206  1
  V  V20  1  0.62473769  0.87887842  0.89497329  1
  V  V21  1  0.62379041  0.12529647  0.63899405  1
  V  V22  1  0.12394879  0.62106824  0.63832530  1
  V  V23  1  0.62595110  0.12089592  0.14783364  1
  V  V24  1  0.62577493  0.87741501  0.38502532  1
  V  V25  1  0.62505697  0.37616420  0.64408119  1
  V  V26  1  0.87596907  0.37287292  0.13709656  1
  V  V27  1  0.37596702  0.87458088  0.14503038  1
  V  V28  1  0.12564363  0.62418877  0.14446843  1
  V  V29  1  0.87559036  0.62482606  0.13640994  1
  V  V30  1  0.37340496  0.37366961  0.64015258  1
  V  V31  1  0.12874893  0.37685297  0.38534950  1
  Fe  Fe32  1  0.37650950  0.12533495  0.38416686  1
  Fe  Fe33  1  0.62370472  0.62542392  0.64329940  1
  Fe  Fe34  1  0.62510199  0.37172210  0.88522544  1
  Fe  Fe35  1  0.37389960  0.62412451  0.38278055  1
  Fe  Fe36  1  0.12316070  0.12604646  0.38479745  1
  Fe  Fe37  1  0.62551604  0.62608560  0.88328469  1
  Fe  Fe38  1  0.87428942  0.62367488  0.39008076  1
  Fe  Fe39  1  0.12630695  0.12411449  0.88579184  1
  Fe  Fe40  1  0.12433791  0.87772763  0.88423430  1
  Fe  Fe41  1  0.87317199  0.87232565  0.38377034  1
  Fe  Fe42  1  0.87702761  0.62438485  0.88208258  1
  Fe  Fe43  1  0.62647835  0.87397346  0.13431294  1
  Fe  Fe44  1  0.37807713  0.12575784  0.63064421  1
  Fe  Fe45  1  0.37395441  0.37285730  0.88551967  1
  Fe  Fe46  1  0.37315295  0.62613727  0.89062264  1
  Fe  Fe47  1  0.37377753  0.62538455  0.13429044  1
  Fe  Fe48  1  0.62537885  0.62591986  0.13231467  1
  Fe  Fe49  1  0.12776699  0.87250594  0.63204228  1
  Fe  Fe50  1  0.87469312  0.12523357  0.13909338  1
  Fe  Fe51  1  0.62603916  0.12681135  0.37830383  1
  Fe  Fe52  1  0.12560802  0.12599917  0.14526366  1
  Fe  Fe53  1  0.62402505  0.87419710  0.63311196  1
  Fe  Fe54  1  0.37620886  0.87121198  0.38114245  1
  Fe  Fe55  1  0.38039867  0.37949416  0.38111324  1
  Fe  Fe56  1  0.12272036  0.62394851  0.38204021  1
  Fe  Fe57  1  0.12640300  0.12744715  0.62961116  1
  Fe  Fe58  1  0.87618510  0.37385701  0.88412283  1
  Fe  Fe59  1  0.12664545  0.37802348  0.63191296  1
  Fe  Fe60  1  0.87272758  0.12487403  0.38768183  1
  Fe  Fe61  1  0.87507310  0.62523650  0.63917006  1
  Fe  Fe62  1  0.87191763  0.12506491  0.63187150  1
  Fe  Fe63  1  0.12397247  0.37607432  0.13839283  1
  Pb  Pb64  1  0.00157166  0.00956727  0.00376893  1
  Pb  Pb65  1  -0.00037678  0.00955650  0.25496645  1
  Pb  Pb66  1  0.00019981  0.00629818  0.49536566  1
  Pb  Pb67  1  0.00975786  0.00224412  0.74268500  1
  Pb  Pb68  1  0.01148355  0.24716441  0.00686930  1
  Pb  Pb69  1  0.00467137  0.24327493  0.25213458  1
  Pb  Pb70  1  0.00914983  0.24747012  0.50117550  1
  Pb  Pb71  1  0.00530069  0.24274147  0.74455447  1
  Pb  Pb72  1  0.00120776  0.49420553  -0.00148932  1
  Pb  Pb73  1  -0.00198860  0.51095966  0.25363207  1
  Pb  Pb74  1  -0.00184123  0.50020874  0.50061013  1
  Pb  Pb75  1  -0.01006683  0.49865847  0.75306497  1
  Pb  Pb76  1  -0.00040482  0.75397778  -0.00081339  1
  Pb  Pb77  1  -0.00209625  0.74662698  0.25618319  1
  Pb  Pb78  1  -0.00552463  0.74622396  0.49660200  1
  Pb  Pb79  1  0.00525496  0.75679970  0.74596535  1
  Pb  Pb80  1  0.24280381  0.00516709  0.00184851  1
  Pb  Pb81  1  0.25889981  0.00058286  0.25892758  1
  Pb  Pb82  1  0.24551088  0.00006143  0.49401177  1
  Pb  Pb83  1  0.24038624  0.00308149  0.74427473  1
  Pb  Pb84  1  0.23756871  0.24918837  0.00749904  1
  Pb  Pb85  1  0.24913370  0.24691631  0.25358536  1
  Pb  Pb86  1  0.25083261  0.24028797  0.49507229  1
  Pb  Pb87  1  0.24534989  0.24311033  0.74551664  1
  Pb  Pb88  1  0.25504857  0.50158184  0.00104862  1
  Pb  Pb89  1  0.26031210  0.50180219  0.25357497  1
  Pb  Pb90  1  0.25006714  0.49957696  0.49382306  1
  Pb  Pb91  1  0.26107154  0.50074723  0.75438766  1
  Pb  Pb92  1  0.25649743  0.74843418  0.00362976  1
  Pb  Pb93  1  0.25291145  0.74833913  0.25478982  1
  Pb  Pb94  1  0.24822814  0.75241132  0.49360512  1
  Pb  Pb95  1  0.25585060  0.74643874  0.75000826  1
  Pb  Pb96  1  0.50365575  -0.00595389  0.00675190  1
  Pb  Pb97  1  0.49612598  0.00370586  0.25584071  1
  Pb  Pb98  1  0.49440335  0.00326928  0.49281996  1
  Pb  Pb99  1  0.49814731  -0.00183143  0.74622686  1
  Pb  Pb100  1  0.49905390  0.25397454  0.00005364  1
  Pb  Pb101  1  0.50152986  0.24697382  0.25402007  1
  Pb  Pb102  1  0.49376194  0.24627521  0.49379320  1
  Pb  Pb103  1  0.50002372  0.25828804  0.75420654  1
  Pb  Pb104  1  0.50221533  0.50513299  -0.00797441  1
  Pb  Pb105  1  0.49420275  0.50139892  0.24643938  1
  Pb  Pb106  1  0.50404215  0.50522379  0.49883455  1
  Pb  Pb107  1  0.49941743  0.49637527  0.75666834  1
  Pb  Pb108  1  0.50717854  0.74364286  0.00241606  1
  Pb  Pb109  1  0.50017072  0.74484509  0.24484025  1
  Pb  Pb110  1  0.50816288  0.74988090  0.49889227  1
  Pb  Pb111  1  0.50382426  0.74149962  0.75291771  1
  Pb  Pb112  1  0.75824879  0.00368318  0.00658589  1
  Pb  Pb113  1  0.76242937  -0.00113060  0.25651411  1
  Pb  Pb114  1  0.75351445  0.00268385  0.49559257  1
  Pb  Pb115  1  0.75336865  -0.00149986  0.74562063  1
  Pb  Pb116  1  0.75537692  0.24858426  -0.00062105  1
  Pb  Pb117  1  0.75030747  0.24395424  0.25207582  1
  Pb  Pb118  1  0.75272002  0.24547785  0.49882480  1
  Pb  Pb119  1  0.74920114  0.25829133  0.75401691  1
  Pb  Pb120  1  0.74809049  0.50311360  -0.01063429  1
  Pb  Pb121  1  0.75574693  0.50496298  0.24628857  1
  Pb  Pb122  1  0.74916303  0.51091205  0.50828297  1
  Pb  Pb123  1  0.75301996  0.50370535  0.75453164  1
  Pb  Pb124  1  0.74202620  0.74681811  -0.00045910  1
  Pb  Pb125  1  0.75493604  0.75162827  0.24925288  1
  Pb  Pb126  1  0.74522336  0.74683035  0.50269206  1
  Pb  Pb127  1  0.74599812  0.74084729  0.74906781  1
  O  O128  1  0.12300716  -0.00887346  0.16456578  1
  O  O129  1  0.12516394  -0.00563864  0.40872042  1
  O  O130  1  0.12668429  -0.00071404  0.65853448  1
  O  O131  1  0.12504391  0.00091818  0.91890961  1
  O  O132  1  0.12525785  0.25399601  0.17099726  1
  O  O133  1  0.12017654  0.25994359  0.40924232  1
  O  O134  1  0.12650449  0.25412738  0.66413742  1
  O  O135  1  0.12525802  0.25160715  0.91519435  1
  O  O136  1  0.12138048  0.50607728  0.16047587  1
  O  O137  1  0.11880898  0.49257072  0.41117571  1
  O  O138  1  0.12811991  0.50535099  0.66477918  1
  O  O139  1  0.12478549  0.49915094  0.91329808  1
  O  O140  1  0.12297878  0.75186148  0.16934732  1
  O  O141  1  0.12347856  0.75345203  0.41097541  1
  O  O142  1  0.12753762  0.74192096  0.66334786  1
  O  O143  1  0.12355165  0.74789809  0.91255514  1
  O  O144  1  0.37294716  -0.00280850  0.16747949  1
  O  O145  1  0.37743876  -0.00389648  0.41106158  1
  O  O146  1  0.37816230  -0.00547803  0.65746161  1
  O  O147  1  0.37600887  -0.00027437  0.92164286  1
  O  O148  1  0.37686299  0.25256372  0.16745015  1
  O  O149  1  0.37939445  0.25538241  0.40839831  1
  O  O150  1  0.37964082  0.25675215  0.66029914  1
  O  O151  1  0.37696129  0.24038149  0.91210676  1
  O  O152  1  0.37474015  0.49521501  0.15851771  1
  O  O153  1  0.37784975  0.50028060  0.41866726  1
  O  O154  1  0.37726324  0.49696249  0.66689115  1
  O  O155  1  0.37029423  0.49856101  0.91614937  1
  O  O156  1  0.36958256  0.75543961  0.16290586  1
  O  O157  1  0.37651961  0.74812169  0.41207784  1
  O  O158  1  0.37484778  0.75097835  0.66356230  1
  O  O159  1  0.37180279  0.76052863  0.91406727  1
  O  O160  1  0.62208483  0.00319268  0.16299372  1
  O  O161  1  0.62542877  -0.00592338  0.40140439  1
  O  O162  1  0.62325596  0.00489836  0.66146934  1
  O  O163  1  0.62510569  0.00214136  0.92494656  1
  O  O164  1  0.62551160  0.25291146  0.16788302  1
  O  O165  1  0.62771391  0.25930747  0.40624836  1
  O  O166  1  0.62369552  0.24899333  0.66642753  1
  O  O167  1  0.62423863  0.24057372  0.91796613  1
  O  O168  1  0.62655240  0.49540297  0.15994867  1
  O  O169  1  0.62804487  0.50241469  0.41445693  1
  O  O170  1  0.62321541  0.49195474  0.66483295  1
  O  O171  1  0.62498550  0.49882971  0.90906736  1
  O  O172  1  0.62577040  0.75129278  0.16615611  1
  O  O173  1  0.62510087  0.74361521  0.40965813  1
  O  O174  1  0.62353752  0.75327812  0.66920288  1
  O  O175  1  0.62552917  0.75757133  0.91309757  1
  O  O176  1  0.87614214  -0.00664824  0.16388208  1
  O  O177  1  0.87080860  -0.00350034  0.41382925  1
  O  O178  1  0.87331441  -0.00487247  0.66162020  1
  O  O179  1  0.87377699  0.00004005  0.91927704  1
  O  O180  1  0.87163616  0.25669181  0.16022550  1
  O  O181  1  0.86784058  0.26071082  0.41145479  1
  O  O182  1  0.86934973  0.25478302  0.66387000  1
  O  O183  1  0.87370646  0.24096688  0.91045235  1
  O  O184  1  0.87526322  0.49976734  0.16104006  1
  O  O185  1  0.87054535  0.49272769  0.41869646  1
  O  O186  1  0.87218004  0.49180962  0.66448041  1
  O  O187  1  0.88007587  0.49959737  0.91467114  1
  O  O188  1  0.87739611  0.75113507  0.16445689  1
  O  O189  1  0.87367870  0.74953578  0.41610674  1
  O  O190  1  0.87549220  0.75731217  0.66068450  1
  O  O191  1  0.87852983  0.75781573  0.91003840  1
  O  O192  1  -0.00150359  0.12437939  0.16635627  1
  O  O193  1  -0.00202100  0.12721826  0.41174853  1
  O  O194  1  -0.00229887  0.12771417  0.65812887  1
  O  O195  1  -0.00615349  0.12153565  0.91125655  1
  O  O196  1  -0.00902075  0.37711648  0.16205887  1
  O  O197  1  -0.00699297  0.37626717  0.40851630  1
  O  O198  1  -0.00526892  0.37478688  0.66009043  1
  O  O199  1  0.00659569  0.37225765  0.91535861  1
  O  O200  1  -0.00017994  0.62756634  0.16653127  1
  O  O201  1  0.00020364  0.62164963  0.41764473  1
  O  O202  1  0.00678427  0.62317221  0.66077920  1
  O  O203  1  0.00732369  0.62570155  0.91584881  1
  O  O204  1  0.00078377  0.87171721  0.16685605  1
  O  O205  1  0.00438651  0.87460150  0.40990591  1
  O  O206  1  -0.00525818  0.87475646  0.65853570  1
  O  O207  1  -0.00641875  0.87952461  0.91626511  1
  O  O208  1  0.25373270  0.12500993  0.16874721  1
  O  O209  1  0.24925806  0.12807361  0.40706107  1
  O  O210  1  0.25444396  0.12683716  0.66055438  1
  O  O211  1  0.25810061  0.12154023  0.91426287  1
  O  O212  1  0.25653251  0.37456888  0.16286162  1
  O  O213  1  0.24479313  0.37822320  0.40285463  1
  O  O214  1  0.25728311  0.37723885  0.65939434  1
  O  O215  1  0.24376807  0.37216331  0.91486230  1
  O  O216  1  0.24329393  0.62730668  0.16239355  1
  O  O217  1  0.24659794  0.62058878  0.41144125  1
  O  O218  1  0.24993403  0.62392191  0.66659097  1
  O  O219  1  0.23953600  0.62601853  0.91800421  1
  O  O220  1  0.24483381  0.87409523  0.16664599  1
  O  O221  1  0.24466376  0.87294621  0.40957691  1
  O  O222  1  0.25945220  0.87295671  0.66086162  1
  O  O223  1  0.25510733  0.87990418  0.91417291  1
  O  O224  1  0.50158351  0.12661097  0.16823700  1
  O  O225  1  0.50479735  0.12606528  0.41174172  1
  O  O226  1  0.50576901  0.12636139  0.66489677  1
  O  O227  1  0.49696148  0.11982549  0.91822326  1
  O  O228  1  0.49880162  0.37424823  0.16298811  1
  O  O229  1  0.51185328  0.38143617  0.41049509  1
  O  O230  1  0.50110035  0.37458587  0.66675124  1
  O  O231  1  0.49896848  0.37041543  0.91772314  1
  O  O232  1  0.49881762  0.62659274  0.15858434  1
  O  O233  1  0.50817765  0.62181176  0.41098424  1
  O  O234  1  0.49417671  0.62363395  0.66767798  1
  O  O235  1  0.49912453  0.62927952  0.91058509  1
  O  O236  1  0.49329715  0.87558093  0.16131946  1
  O  O237  1  0.50860788  0.86922003  0.40896448  1
  O  O238  1  0.49308756  0.87330252  0.66484665  1
  O  O239  1  0.49554402  0.87945528  0.91803701  1
  O  O240  1  0.74520053  0.12557862  0.16463179  1
  O  O241  1  0.74606760  0.12689163  0.41429624  1
  O  O242  1  0.74193597  0.12595401  0.66565694  1
  O  O243  1  0.75171537  0.12064600  0.91648123  1
  O  O244  1  0.75421736  0.37716449  0.16277204  1
  O  O245  1  0.74632414  0.37979690  0.41647171  1
  O  O246  1  0.74610283  0.37267870  0.66518197  1
  O  O247  1  0.75120430  0.36949277  0.91498998  1
  O  O248  1  0.75528956  0.62562897  0.16028140  1
  O  O249  1  0.74364697  0.62304546  0.41565033  1
  O  O250  1  0.75081127  0.62318159  0.66669754  1
  O  O251  1  0.75272211  0.62881433  0.90959365  1
  O  O252  1  0.75700811  0.87366806  0.16076776  1
  O  O253  1  0.74082626  0.86866738  0.41195511  1
  O  O254  1  0.75484729  0.87637082  0.66223894  1
  O  O255  1  0.75552652  0.87901397  0.91485840  1
  O  O256  1  0.12633255  0.13241819  0.04260860  1
  O  O257  1  0.11839793  0.12815043  0.28290530  1
  O  O258  1  0.12618305  0.13297088  0.52837356  1
  O  O259  1  0.12894319  0.12493917  0.78596149  1
  O  O260  1  0.12342888  0.36543270  0.03833432  1
  O  O261  1  0.12241457  0.37718259  0.29401734  1
  O  O262  1  0.12142202  0.37561984  0.53319963  1
  O  O263  1  0.12566067  0.37497596  0.80043712  1
  O  O264  1  0.12091699  0.63129557  0.05364600  1
  O  O265  1  0.11576871  0.62498750  0.28203594  1
  O  O266  1  0.12725661  0.62042809  0.54742128  1
  O  O267  1  0.12455951  0.62672651  0.79860119  1
  O  O268  1  0.12281339  0.87150248  0.05207350  1
  O  O269  1  0.12383554  0.87133795  0.29640804  1
  O  O270  1  0.13248802  0.87299044  0.53338426  1
  O  O271  1  0.12042885  0.87762927  0.78469360  1
  O  O272  1  0.37537727  0.12510085  0.05466789  1
  O  O273  1  0.38050061  0.11947434  0.28218072  1
  O  O274  1  0.38200165  0.12977440  0.53085807  1
  O  O275  1  0.37868504  0.11876747  0.79998088  1
  O  O276  1  0.37615809  0.36873026  0.05059279  1
  O  O277  1  0.37725836  0.38941554  0.28133521  1
  O  O278  1  0.37860020  0.37787975  0.54943855  1
  O  O279  1  0.37851089  0.37605964  0.78586112  1
  O  O280  1  0.36353643  0.62957036  0.03353179  1
  O  O281  1  0.37269122  0.61820382  0.28132350  1
  O  O282  1  0.37482225  0.62273970  0.54921484  1
  O  O283  1  0.36336635  0.62635811  0.79016978  1
  O  O284  1  0.36914769  0.87722635  0.05396667  1
  O  O285  1  0.37046751  0.87595430  0.28067716  1
  O  O286  1  0.37770896  0.87253690  0.54454071  1
  O  O287  1  0.37618918  0.88246649  0.80099411  1
  O  O288  1  0.62343401  0.12720783  0.05694185  1
  O  O289  1  0.62430028  0.13099882  0.27797814  1
  O  O290  1  0.62438229  0.12832665  0.54826772  1
  O  O291  1  0.62324573  0.11933937  0.79956909  1
  O  O292  1  0.62541629  0.36965818  0.04653198  1
  O  O293  1  0.63199720  0.38113380  0.29576864  1
  O  O294  1  0.62385404  0.37249926  0.55347465  1
  O  O295  1  0.62101350  0.36624459  0.78483884  1
  O  O296  1  0.62695130  0.63416475  0.03205009  1
  O  O297  1  0.62860023  0.62200437  0.29627268  1
  O  O298  1  0.62457099  0.62538978  0.54225498  1
  O  O299  1  0.62414857  0.63023418  0.78173091  1
  O  O300  1  0.62175894  0.87197786  0.03450107  1
  O  O301  1  0.62709448  0.87018928  0.29378431  1
  O  O302  1  0.62216951  0.86732745  0.53431797  1
  O  O303  1  0.62175565  0.88580342  0.80405013  1
  O  O304  1  0.87187606  0.12000691  0.03882082  1
  O  O305  1  0.86862236  0.12116993  0.28509401  1
  O  O306  1  0.86468642  0.12546287  0.53233048  1
  O  O307  1  0.87158803  0.11876229  0.79988278  1
  O  O308  1  0.87554841  0.37379370  0.04581552  1
  O  O309  1  0.87114504  0.38058173  0.29738216  1
  O  O310  1  0.87333080  0.37300657  0.55014608  1
  O  O311  1  0.87455062  0.37691721  0.78455790  1
  O  O312  1  0.88116186  0.62799070  0.04565150  1
  O  O313  1  0.87693313  0.61802089  0.28914019  1
  O  O314  1  0.87164244  0.62010679  0.53857101  1
  O  O315  1  0.87981950  0.61751632  0.78168873  1
  O  O316  1  0.88075976  0.87292626  0.05189443  1
  O  O317  1  0.86779791  0.87331238  0.28335961  1
  O  O318  1  0.87166519  0.87574475  0.54386490  1
  O  O319  1  0.87562794  0.88107474  0.79897800  1
