# generated using pymatgen
data_VFe(PbO3)2
_symmetry_space_group_name_H-M   'P 1'
_cell_length_a   15.40504779
_cell_length_b   15.39134381
_cell_length_c   18.44372202
_cell_angle_alpha   90.03577353
_cell_angle_beta   90.01812799
_cell_angle_gamma   89.99387302
_symmetry_Int_Tables_number   1
_chemical_formula_structural   VFe(PbO3)2
_chemical_formula_sum   'V32 Fe32 Pb64 O192'
_cell_volume   4373.08630659
_cell_formula_units_Z   32
loop_
 _symmetry_equiv_pos_site_id
 _symmetry_equiv_pos_as_xyz
  1  'x, y, z'
loop_
 _atom_site_type_symbol
 _atom_site_label
 _atom_site_symmetry_multiplicity
 _atom_site_fract_x
 _atom_site_fract_y
 _atom_site_fract_z
 _atom_site_occupancy
  V  V0  1  0.87335387  0.62400591  0.63898958  1
  V  V1  1  0.37303583  0.37598036  0.14014830  1
  V  V2  1  0.12029297  0.37388809  0.14396265  1
  V  V3  1  0.37367004  0.62406271  0.13753070  1
  V  V4  1  0.12787781  0.12345692  0.39249208  1
  V  V5  1  0.12494735  0.62521162  0.39287816  1
  V  V6  1  0.87001735  0.37595773  0.39712520  1
  V  V7  1  0.37304802  0.62792393  0.39464388  1
  V  V8  1  0.12584929  0.62443425  0.13853556  1
  V  V9  1  0.37194501  0.12397301  0.13974654  1
  V  V10  1  0.37728883  0.37337079  0.88590239  1
  V  V11  1  0.37624976  0.12999445  0.64361906  1
  V  V12  1  0.12614848  0.37459501  0.39216925  1
  V  V13  1  0.12848240  0.37866536  0.63575539  1
  V  V14  1  0.64020253  0.37611005  0.87701162  1
  V  V15  1  0.88926332  0.37436391  0.88061230  1
  V  V16  1  0.62352116  0.12460234  0.39403743  1
  V  V17  1  0.86927913  0.37580200  0.14477548  1
  V  V18  1  0.62127414  0.37298818  0.14797877  1
  V  V19  1  0.37508218  0.87238318  0.13358308  1
  V  V20  1  0.12510629  0.62852198  0.64132906  1
  V  V21  1  0.12671752  0.12563183  0.63844546  1
  V  V22  1  0.12290931  0.87495572  0.13816701  1
  V  V23  1  0.37810639  0.87600083  0.39546646  1
  V  V24  1  0.62452125  0.37650400  0.63415592  1
  V  V25  1  0.12982665  0.37539294  0.88685188  1
  V  V26  1  0.37761895  0.37402600  0.39768204  1
  V  V27  1  0.37398772  0.88176915  0.65230460  1
  V  V28  1  0.62490982  0.62470494  0.14169840  1
  V  V29  1  0.37692016  0.62643605  0.64351995  1
  V  V30  1  0.62401168  0.87510745  0.39189912  1
  V  V31  1  0.62586329  0.87416553  0.64482240  1
  Fe  Fe32  1  0.87439552  0.87583723  0.87446510  1
  Fe  Fe33  1  0.12183858  0.62209361  0.88145402  1
  Fe  Fe34  1  0.37461470  0.37747832  0.63359672  1
  Fe  Fe35  1  0.87235929  0.87322529  0.13051957  1
  Fe  Fe36  1  0.62629976  0.62018288  0.87657688  1
  Fe  Fe37  1  0.12816865  0.87665649  0.64743162  1
  Fe  Fe38  1  0.87790450  0.12391115  0.39934925  1
  Fe  Fe39  1  0.12926618  0.87406654  0.38919547  1
  Fe  Fe40  1  0.62362760  0.37446037  0.38644451  1
  Fe  Fe41  1  0.87655925  0.87330855  0.38978092  1
  Fe  Fe42  1  0.37446135  0.87585709  0.87668260  1
  Fe  Fe43  1  0.62515048  0.62521014  0.64358918  1
  Fe  Fe44  1  0.37395242  0.12256162  0.38884481  1
  Fe  Fe45  1  0.87577439  0.62206959  0.14488101  1
  Fe  Fe46  1  0.62454627  0.12661388  0.13575073  1
  Fe  Fe47  1  0.62188418  0.87671404  0.12795377  1
  Fe  Fe48  1  0.62580015  0.13021547  0.87587276  1
  Fe  Fe49  1  0.62489684  0.87489307  0.88094149  1
  Fe  Fe50  1  0.37453146  0.62154383  0.88070124  1
  Fe  Fe51  1  0.12284193  0.12820453  0.88378598  1
  Fe  Fe52  1  0.37423196  0.12913160  0.88060281  1
  Fe  Fe53  1  0.87627193  0.12647487  0.63159541  1
  Fe  Fe54  1  0.62341299  0.12500729  0.64543833  1
  Fe  Fe55  1  0.87290349  0.62020348  0.88268030  1
  Fe  Fe56  1  0.87543962  0.62558079  0.38339101  1
  Fe  Fe57  1  0.87361213  0.13030468  0.87900750  1
  Fe  Fe58  1  0.87552553  0.87338835  0.64302245  1
  Fe  Fe59  1  0.87567157  0.37714579  0.63037587  1
  Fe  Fe60  1  0.87601530  0.12477508  0.13870489  1
  Fe  Fe61  1  0.12287081  0.87505257  0.87303312  1
  Fe  Fe62  1  0.12393486  0.12386332  0.13649580  1
  Fe  Fe63  1  0.62272371  0.62700810  0.38941265  1
  Pb  Pb64  1  -0.00703587  -0.00097094  -0.01450654  1
  Pb  Pb65  1  -0.01372697  0.00008869  0.25307103  1
  Pb  Pb66  1  -0.00290185  -0.00811639  0.50401049  1
  Pb  Pb67  1  -0.00095691  -0.00553884  0.74628820  1
  Pb  Pb68  1  -0.00172964  0.23589912  0.00447214  1
  Pb  Pb69  1  -0.00497860  0.23832225  0.25943208  1
  Pb  Pb70  1  -0.00485294  0.25241121  0.50543935  1
  Pb  Pb71  1  -0.00055472  0.24405130  0.74520704  1
  Pb  Pb72  1  -0.00684361  0.50782775  0.00246690  1
  Pb  Pb73  1  -0.00339036  0.50456665  0.25543420  1
  Pb  Pb74  1  -0.00389943  0.49757627  0.50276973  1
  Pb  Pb75  1  0.00088423  0.50832118  0.75101769  1
  Pb  Pb76  1  -0.00973696  0.75549982  -0.01240354  1
  Pb  Pb77  1  -0.00936506  0.75461753  0.25300285  1
  Pb  Pb78  1  -0.00426356  0.76241556  0.50496489  1
  Pb  Pb79  1  0.00058857  0.75630720  0.75246845  1
  Pb  Pb80  1  0.24738097  0.00022928  -0.01497160  1
  Pb  Pb81  1  0.24540227  -0.00690856  0.25031645  1
  Pb  Pb82  1  0.24450794  -0.00616248  0.50765467  1
  Pb  Pb83  1  0.24994077  0.01245675  0.75945705  1
  Pb  Pb84  1  0.24405349  0.24188882  0.00149770  1
  Pb  Pb85  1  0.25424864  0.24367149  0.25375669  1
  Pb  Pb86  1  0.25397504  0.25437749  0.50381070  1
  Pb  Pb87  1  0.24807924  0.24545004  0.75265422  1
  Pb  Pb88  1  0.24848537  0.50305632  -0.00291628  1
  Pb  Pb89  1  0.25114015  0.49954621  0.25066224  1
  Pb  Pb90  1  0.25717390  0.49831722  0.50530880  1
  Pb  Pb91  1  0.24950007  0.50832125  0.75214121  1
  Pb  Pb92  1  0.24727339  0.75099439  -0.01689743  1
  Pb  Pb93  1  0.24342048  0.75456329  0.25090190  1
  Pb  Pb94  1  0.24557303  0.75738549  0.50975183  1
  Pb  Pb95  1  0.25671098  0.74934230  0.75726378  1
  Pb  Pb96  1  0.50814075  -0.00053662  -0.01377601  1
  Pb  Pb97  1  0.49723977  0.00161488  0.24322427  1
  Pb  Pb98  1  0.50742755  0.00466087  0.50926298  1
  Pb  Pb99  1  0.50737377  -0.00462640  0.75897376  1
  Pb  Pb100  1  0.50594145  0.24468764  -0.00354218  1
  Pb  Pb101  1  0.49345391  0.24646860  0.25344049  1
  Pb  Pb102  1  0.50591821  0.24486269  0.50660421  1
  Pb  Pb103  1  0.50475832  0.25021750  0.75026119  1
  Pb  Pb104  1  0.50075880  0.49939079  -0.00630662  1
  Pb  Pb105  1  0.50486298  0.50066356  0.25799955  1
  Pb  Pb106  1  0.50726244  0.50488967  0.50538355  1
  Pb  Pb107  1  0.50098942  0.50320520  0.74895171  1
  Pb  Pb108  1  0.50558725  0.75259074  -0.01452194  1
  Pb  Pb109  1  0.50212164  0.74424211  0.24752328  1
  Pb  Pb110  1  0.50492579  0.74655604  0.50911827  1
  Pb  Pb111  1  0.50219528  0.75613302  0.75802646  1
  Pb  Pb112  1  0.75074123  -0.00220368  -0.01336949  1
  Pb  Pb113  1  0.75139836  -0.00386157  0.24239105  1
  Pb  Pb114  1  0.76048226  -0.00187800  0.50706087  1
  Pb  Pb115  1  0.76077820  0.00646001  0.74721501  1
  Pb  Pb116  1  0.75063537  0.23208009  0.00558726  1
  Pb  Pb117  1  0.75166478  0.24187122  0.25527235  1
  Pb  Pb118  1  0.75019520  0.23870703  0.50844275  1
  Pb  Pb119  1  0.75787924  0.24437425  0.74247256  1
  Pb  Pb120  1  0.75492896  0.51473236  0.00669843  1
  Pb  Pb121  1  0.73724922  0.50271682  0.26057922  1
  Pb  Pb122  1  0.74290744  0.50861748  0.49934611  1
  Pb  Pb123  1  0.75427779  0.50495996  0.74880863  1
  Pb  Pb124  1  0.75303014  0.75910182  -0.01088537  1
  Pb  Pb125  1  0.75921599  0.75708728  0.24848161  1
  Pb  Pb126  1  0.75711028  0.75006752  0.50141766  1
  Pb  Pb127  1  0.74867347  0.75893106  0.75580284  1
  O  O128  1  0.13018464  -0.00766840  0.16052649  1
  O  O129  1  0.13023517  0.00560666  0.41559414  1
  O  O130  1  0.13088537  0.00930324  0.66313668  1
  O  O131  1  0.12289583  0.00136961  0.90551682  1
  O  O132  1  0.12750302  0.25882751  0.16643616  1
  O  O133  1  0.12849297  0.24990878  0.41646596  1
  O  O134  1  0.13134066  0.24859311  0.65821941  1
  O  O135  1  0.12398708  0.26178209  0.91531888  1
  O  O136  1  0.12849033  0.49779418  0.17001559  1
  O  O137  1  0.13120217  0.50352008  0.41756578  1
  O  O138  1  0.12811374  0.49784892  0.65799676  1
  O  O139  1  0.12417559  0.48997091  0.91584728  1
  O  O140  1  0.13110014  0.75019610  0.16303006  1
  O  O141  1  0.13173069  0.74216787  0.41682330  1
  O  O142  1  0.12711234  0.74211762  0.66267155  1
  O  O143  1  0.12265638  0.74812367  0.90433017  1
  O  O144  1  0.37310715  -0.00172436  0.16143197  1
  O  O145  1  0.37607485  -0.00652884  0.41803853  1
  O  O146  1  0.37461321  0.00026927  0.66695667  1
  O  O147  1  0.37517729  0.00289153  0.90572691  1
  O  O148  1  0.37195285  0.25198307  0.16894657  1
  O  O149  1  0.37317125  0.25419886  0.41633536  1
  O  O150  1  0.37278491  0.24677450  0.65877410  1
  O  O151  1  0.36859369  0.25915087  0.91269381  1
  O  O152  1  0.37305055  0.49992467  0.16842079  1
  O  O153  1  0.37288317  0.49942690  0.41720056  1
  O  O154  1  0.37056338  0.50536312  0.66111971  1
  O  O155  1  0.36974371  0.49113675  0.91458337  1
  O  O156  1  0.37454525  0.74672601  0.16342945  1
  O  O157  1  0.37667823  0.75476407  0.42237992  1
  O  O158  1  0.37221790  0.74405854  0.66612467  1
  O  O159  1  0.37491307  0.74742879  0.90660715  1
  O  O160  1  0.62056958  0.00123497  0.16254668  1
  O  O161  1  0.62024205  -0.00158776  0.41863408  1
  O  O162  1  0.62014286  -0.00704247  0.66502727  1
  O  O163  1  0.62325058  0.00500779  0.89973864  1
  O  O164  1  0.62326679  0.25341242  0.17141411  1
  O  O165  1  0.62247823  0.24482867  0.41454413  1
  O  O166  1  0.62031382  0.26012618  0.66084649  1
  O  O167  1  0.62569310  0.26699218  0.91189973  1
  O  O168  1  0.62095536  0.50027792  0.17177114  1
  O  O169  1  0.62101975  0.49880375  0.41832975  1
  O  O170  1  0.62311901  0.49255672  0.66038693  1
  O  O171  1  0.62480433  0.48450846  0.91383223  1
  O  O172  1  0.61826384  0.74114780  0.15856033  1
  O  O173  1  0.61860639  0.75821255  0.41582606  1
  O  O174  1  0.62317722  0.75362389  0.66462893  1
  O  O175  1  0.62411934  0.74492629  0.90232666  1
  O  O176  1  0.87687654  -0.00205433  0.16369809  1
  O  O177  1  0.87480493  -0.00223772  0.41939320  1
  O  O178  1  0.87503428  0.00235588  0.65788123  1
  O  O179  1  0.87373462  0.00372810  0.90022925  1
  O  O180  1  0.87829203  0.26039555  0.17291203  1
  O  O181  1  0.87823678  0.25686502  0.41822609  1
  O  O182  1  0.88074679  0.25341467  0.65660677  1
  O  O183  1  0.87018338  0.26632915  0.91092305  1
  O  O184  1  0.87717190  0.49128391  0.17271259  1
  O  O185  1  0.88018232  0.49691244  0.41472791  1
  O  O186  1  0.88151597  0.50321445  0.65996483  1
  O  O187  1  0.87006450  0.48381492  0.91708276  1
  O  O188  1  0.87634514  0.74827297  0.16445417  1
  O  O189  1  0.87607830  0.74800648  0.41840824  1
  O  O190  1  0.87725091  0.73866388  0.66303690  1
  O  O191  1  0.87338668  0.74707485  0.90247764  1
  O  O192  1  0.00207258  0.12719090  0.17078986  1
  O  O193  1  0.01194954  0.12602778  0.41930978  1
  O  O194  1  0.00942918  0.12732510  0.65461374  1
  O  O195  1  -0.00285937  0.13559324  0.91003489  1
  O  O196  1  0.00425097  0.37863946  0.16652684  1
  O  O197  1  0.00522057  0.37685582  0.41820248  1
  O  O198  1  0.01382128  0.37337545  0.65914222  1
  O  O199  1  0.00134210  0.37717531  0.90828879  1
  O  O200  1  0.00801637  0.62145190  0.16601000  1
  O  O201  1  0.00978252  0.62274056  0.41179690  1
  O  O202  1  0.00455920  0.62137966  0.66058946  1
  O  O203  1  -0.00273472  0.61503162  0.91403516  1
  O  O204  1  0.00871562  0.87168299  0.15873369  1
  O  O205  1  0.00485246  0.87436508  0.41626987  1
  O  O206  1  0.00159056  0.87344360  0.66027955  1
  O  O207  1  -0.00140381  0.87490150  0.90428275  1
  O  O208  1  0.25063447  0.12649020  0.16699715  1
  O  O209  1  0.24641587  0.12660543  0.41751694  1
  O  O210  1  0.25278051  0.12498998  0.66460820  1
  O  O211  1  0.24876495  0.13118731  0.91469910  1
  O  O212  1  0.24904475  0.37717119  0.16932340  1
  O  O213  1  0.25046621  0.37591852  0.41963385  1
  O  O214  1  0.24426009  0.37454044  0.66364062  1
  O  O215  1  0.24725035  0.37578755  0.91106516  1
  O  O216  1  0.25029505  0.62239187  0.16747575  1
  O  O217  1  0.25239725  0.62583616  0.42205401  1
  O  O218  1  0.24683228  0.62307756  0.66365829  1
  O  O219  1  0.24792392  0.61860767  0.91282514  1
  O  O220  1  0.25178122  0.87227682  0.16599685  1
  O  O221  1  0.25793783  0.87382475  0.42029201  1
  O  O222  1  0.25800212  0.87195477  0.66824231  1
  O  O223  1  0.24881397  0.87498877  0.90191067  1
  O  O224  1  0.49343715  0.12863839  0.16515981  1
  O  O225  1  0.50266774  0.12364231  0.41921878  1
  O  O226  1  0.49157280  0.12348480  0.66477357  1
  O  O227  1  0.50078234  0.13763984  0.90676023  1
  O  O228  1  0.49529740  0.37503637  0.16882854  1
  O  O229  1  0.49411657  0.37455471  0.41386293  1
  O  O230  1  0.50149359  0.37723988  0.65871120  1
  O  O231  1  0.48974600  0.37510872  0.90966349  1
  O  O232  1  0.49839803  0.62080603  0.16645393  1
  O  O233  1  0.49294144  0.62686259  0.42131624  1
  O  O234  1  0.49353382  0.62346849  0.66104473  1
  O  O235  1  0.50140672  0.61319210  0.90822726  1
  O  O236  1  0.49430017  0.87240799  0.16210774  1
  O  O237  1  0.49856230  0.87610808  0.42207579  1
  O  O238  1  0.49816340  0.87188360  0.66744867  1
  O  O239  1  0.49857531  0.87546345  0.90743268  1
  O  O240  1  0.75093767  0.12952345  0.16883232  1
  O  O241  1  0.74103258  0.12381352  0.41738511  1
  O  O242  1  0.74984894  0.12890636  0.65770554  1
  O  O243  1  0.74881191  0.13496700  0.90874982  1
  O  O244  1  0.75263703  0.37614540  0.16860023  1
  O  O245  1  0.75373578  0.37619726  0.41277575  1
  O  O246  1  0.74511434  0.37602154  0.65490631  1
  O  O247  1  0.75152314  0.37756659  0.87010282  1
  O  O248  1  0.74064859  0.61981144  0.16352381  1
  O  O249  1  0.74976934  0.62394433  0.41161623  1
  O  O250  1  0.75677509  0.61911293  0.65720082  1
  O  O251  1  0.74818878  0.61561968  0.91419572  1
  O  O252  1  0.74554938  0.87183078  0.16089564  1
  O  O253  1  0.73940827  0.87593881  0.41379937  1
  O  O254  1  0.74367776  0.87257535  0.66239609  1
  O  O255  1  0.74999966  0.87543858  0.90402331  1
  O  O256  1  0.12094781  0.13624328  0.03684658  1
  O  O257  1  0.12656660  0.12441022  0.30060779  1
  O  O258  1  0.13332790  0.12422731  0.54710852  1
  O  O259  1  0.13251926  0.13400189  0.78271065  1
  O  O260  1  0.12198518  0.37658951  0.05299406  1
  O  O261  1  0.12699585  0.37573368  0.30095049  1
  O  O262  1  0.13041540  0.37722376  0.54354387  1
  O  O263  1  0.12804684  0.37457042  0.79531576  1
  O  O264  1  0.12729037  0.61976345  0.04740800  1
  O  O265  1  0.13092676  0.62454965  0.30148399  1
  O  O266  1  0.12593140  0.62754879  0.54977351  1
  O  O267  1  0.12438051  0.61282946  0.78078109  1
  O  O268  1  0.12699463  0.87235738  0.04754254  1
  O  O269  1  0.13681899  0.87342751  0.28915801  1
  O  O270  1  0.13667681  0.87623673  0.54385404  1
  O  O271  1  0.11858644  0.87408509  0.77077064  1
  O  O272  1  0.37125171  0.13014287  0.04852994  1
  O  O273  1  0.37503060  0.12840547  0.28934612  1
  O  O274  1  0.37490935  0.12295892  0.55163085  1
  O  O275  1  0.36428288  0.13083534  0.78008730  1
  O  O276  1  0.37304991  0.37409882  0.04928884  1
  O  O277  1  0.37121433  0.37524870  0.30605443  1
  O  O278  1  0.36817484  0.37601446  0.53360915  1
  O  O279  1  0.37545071  0.37488663  0.79383642  1
  O  O280  1  0.37346629  0.61977477  0.04676289  1
  O  O281  1  0.37334051  0.62931869  0.30331838  1
  O  O282  1  0.37265038  0.62877221  0.55136515  1
  O  O283  1  0.36817167  0.61915267  0.78014077  1
  O  O284  1  0.37271284  0.87227720  0.04294089  1
  O  O285  1  0.37844115  0.87288809  0.30447131  1
  O  O286  1  0.37661051  0.87626345  0.56002468  1
  O  O287  1  0.38070732  0.86889890  0.77426117  1
  O  O288  1  0.62658835  0.13849746  0.03560480  1
  O  O289  1  0.62225176  0.12217252  0.30288683  1
  O  O290  1  0.61638398  0.12883116  0.54286059  1
  O  O291  1  0.62258239  0.13615443  0.77329407  1
  O  O292  1  0.62472635  0.37635120  0.05703792  1
  O  O293  1  0.62466734  0.38339704  0.28636113  1
  O  O294  1  0.62168192  0.37520659  0.54172014  1
  O  O295  1  0.60792019  0.37678389  0.78813160  1
  O  O296  1  0.62199004  0.61469785  0.05052586  1
  O  O297  1  0.61501253  0.62087608  0.28868291  1
  O  O298  1  0.62054848  0.62271407  0.54137157  1
  O  O299  1  0.62855320  0.61139673  0.77433509  1
  O  O300  1  0.62081528  0.87619103  0.02772222  1
  O  O301  1  0.61921667  0.87583339  0.30101629  1
  O  O302  1  0.62133637  0.87465193  0.55257457  1
  O  O303  1  0.62035873  0.87052082  0.77849610  1
  O  O304  1  0.87346490  0.13684994  0.03806870  1
  O  O305  1  0.88378668  0.12859697  0.29742876  1
  O  O306  1  0.87241641  0.12889568  0.52739216  1
  O  O307  1  0.87496979  0.13691668  0.77749681  1
  O  O308  1  0.87098102  0.37398573  0.05391843  1
  O  O309  1  0.87781812  0.37487529  0.30569973  1
  O  O310  1  0.88359138  0.37945877  0.53013560  1
  O  O311  1  0.89587925  0.37617704  0.78824144  1
  O  O312  1  0.87259916  0.60803758  0.04385508  1
  O  O313  1  0.88192070  0.62683714  0.28221798  1
  O  O314  1  0.87792215  0.62507701  0.54671933  1
  O  O315  1  0.87554098  0.60899619  0.78227589  1
  O  O316  1  0.87350254  0.87134879  0.03029551  1
  O  O317  1  0.87602264  0.86827634  0.28819827  1
  O  O318  1  0.87205193  0.86709022  0.53940752  1
  O  O319  1  0.87301724  0.87179733  0.77066777  1
