# generated using pymatgen
data_VFe(PbO3)2
_symmetry_space_group_name_H-M   'P 1'
_cell_length_a   15.38733529
_cell_length_b   15.37974575
_cell_length_c   18.56238243
_cell_angle_alpha   90.04351280
_cell_angle_beta   90.03158413
_cell_angle_gamma   90.02235746
_symmetry_Int_Tables_number   1
_chemical_formula_structural   VFe(PbO3)2
_chemical_formula_sum   'V32 Fe32 Pb64 O192'
_cell_volume   4392.84687136
_cell_formula_units_Z   32
loop_
 _symmetry_equiv_pos_site_id
 _symmetry_equiv_pos_as_xyz
  1  'x, y, z'
loop_
 _atom_site_type_symbol
 _atom_site_label
 _atom_site_symmetry_multiplicity
 _atom_site_fract_x
 _atom_site_fract_y
 _atom_site_fract_z
 _atom_site_occupancy
  V  V0  1  0.87808198  0.87507273  0.38871006  1
  V  V1  1  0.62666615  0.37426434  0.14518002  1
  V  V2  1  0.37361681  0.12324617  0.63648645  1
  V  V3  1  0.62430380  0.62148985  0.63539760  1
  V  V4  1  0.12002482  0.12911413  0.63448894  1
  V  V5  1  0.87652118  0.12605870  0.39224777  1
  V  V6  1  0.37694488  0.87215856  0.39530552  1
  V  V7  1  0.12679805  0.37508419  0.14075277  1
  V  V8  1  0.12584555  0.87477200  0.39543013  1
  V  V9  1  0.37536077  0.87646090  0.14192641  1
  V  V10  1  0.37891097  0.62452483  0.39977741  1
  V  V11  1  0.12772651  0.38175359  0.88733432  1
  V  V12  1  0.62202950  0.12512643  0.14447939  1
  V  V13  1  0.87635836  0.38027965  0.38610311  1
  V  V14  1  0.12434520  0.12751037  0.88568941  1
  V  V15  1  0.87071401  0.37572247  0.63871449  1
  V  V16  1  0.12999139  0.62286843  0.14198952  1
  V  V17  1  0.87799172  0.87400891  0.88805875  1
  V  V18  1  0.12508069  0.62880739  0.88443101  1
  V  V19  1  0.62289329  0.37704020  0.88804817  1
  V  V20  1  0.37419660  0.12614908  0.14740811  1
  V  V21  1  0.62472106  0.12843115  0.63782402  1
  V  V22  1  0.12664232  0.12626673  0.14223530  1
  V  V23  1  0.37613792  0.62529184  0.88783004  1
  V  V24  1  0.37305525  0.87550285  0.88521235  1
  V  V25  1  0.87303593  0.62905289  0.63955467  1
  V  V26  1  0.63019882  0.87476799  0.38826734  1
  V  V27  1  0.12430887  0.37350430  0.39707019  1
  V  V28  1  0.87369357  0.12707819  0.13939809  1
  V  V29  1  0.37543472  0.37536583  0.14574580  1
  V  V30  1  0.12746324  0.87500221  0.13917456  1
  V  V31  1  0.12197614  0.62509424  0.39614088  1
  Fe  Fe32  1  0.37610925  0.62526861  0.62417315  1
  Fe  Fe33  1  0.87656678  0.62857886  0.38243536  1
  Fe  Fe34  1  0.62719766  0.62718894  0.38179887  1
  Fe  Fe35  1  0.62534127  0.12097146  0.38226451  1
  Fe  Fe36  1  0.62630117  0.62383174  0.88583303  1
  Fe  Fe37  1  0.62340794  0.87215467  0.88889088  1
  Fe  Fe38  1  0.87397144  0.12621349  0.88223405  1
  Fe  Fe39  1  0.37591209  0.37716252  0.88330303  1
  Fe  Fe40  1  0.12220628  0.37308977  0.63064044  1
  Fe  Fe41  1  0.37336531  0.12114874  0.38482846  1
  Fe  Fe42  1  0.37774659  0.37436049  0.62429463  1
  Fe  Fe43  1  0.12660279  0.87467256  0.87955827  1
  Fe  Fe44  1  0.37917584  0.87476018  0.63124142  1
  Fe  Fe45  1  0.62750215  0.37518991  0.63032678  1
  Fe  Fe46  1  0.87706628  0.62450294  0.88528497  1
  Fe  Fe47  1  0.62824631  0.37367135  0.38678079  1
  Fe  Fe48  1  0.87459557  0.37553120  0.89125747  1
  Fe  Fe49  1  0.87725423  0.62422993  0.13883087  1
  Fe  Fe50  1  0.37168030  0.62432954  0.13902311  1
  Fe  Fe51  1  0.62389680  0.12584413  0.88280219  1
  Fe  Fe52  1  0.12203564  0.62138952  0.63179462  1
  Fe  Fe53  1  0.87096293  0.87737818  0.63510455  1
  Fe  Fe54  1  0.87772614  0.37218204  0.13635859  1
  Fe  Fe55  1  0.62597764  0.87764112  0.13191380  1
  Fe  Fe56  1  0.37344830  0.37459080  0.39502177  1
  Fe  Fe57  1  0.12372597  0.87650350  0.63769532  1
  Fe  Fe58  1  0.12322470  0.12307736  0.38916610  1
  Fe  Fe59  1  0.62090424  0.62537751  0.13961870  1
  Fe  Fe60  1  0.87179716  0.12547485  0.63856550  1
  Fe  Fe61  1  0.62538110  0.87524313  0.63487393  1
  Fe  Fe62  1  0.37527791  0.12765555  0.88091050  1
  Fe  Fe63  1  0.87888287  0.87819503  0.13479213  1
  Pb  Pb64  1  -0.00258799  -0.00515580  -0.00358171  1
  Pb  Pb65  1  0.00765972  0.00563266  0.25156397  1
  Pb  Pb66  1  -0.00362357  -0.00872676  0.50754875  1
  Pb  Pb67  1  -0.00239911  -0.00198773  0.74574866  1
  Pb  Pb68  1  -0.00306275  0.25396904  -0.00073907  1
  Pb  Pb69  1  0.00752518  0.24605476  0.25217332  1
  Pb  Pb70  1  -0.00182623  0.25162549  0.50391619  1
  Pb  Pb71  1  -0.01461190  0.25496598  0.75422271  1
  Pb  Pb72  1  -0.01123576  0.50188472  0.00527848  1
  Pb  Pb73  1  -0.00517341  0.50323113  0.25057882  1
  Pb  Pb74  1  0.00643100  0.50163047  0.50570599  1
  Pb  Pb75  1  -0.00931967  0.49830186  0.74951260  1
  Pb  Pb76  1  -0.01157658  0.75172786  0.00503746  1
  Pb  Pb77  1  -0.00506616  0.74771461  0.24916458  1
  Pb  Pb78  1  0.00453072  0.75354310  0.50558309  1
  Pb  Pb79  1  0.00304250  0.75403422  0.74454525  1
  Pb  Pb80  1  0.24906385  0.00097946  -0.00647283  1
  Pb  Pb81  1  0.24977751  0.00871128  0.25686871  1
  Pb  Pb82  1  0.24728336  -0.00648356  0.50285163  1
  Pb  Pb83  1  0.24917484  -0.00302586  0.74453039  1
  Pb  Pb84  1  0.25147217  0.25021082  -0.00431811  1
  Pb  Pb85  1  0.25856505  0.25116847  0.25966530  1
  Pb  Pb86  1  0.25487327  0.24869115  0.49791321  1
  Pb  Pb87  1  0.26097261  0.25428354  0.74423211  1
  Pb  Pb88  1  0.25520205  0.50590235  0.00049986  1
  Pb  Pb89  1  0.25730382  0.49266557  0.25926998  1
  Pb  Pb90  1  0.25111770  0.50594179  0.50701278  1
  Pb  Pb91  1  0.25229973  0.49644705  0.73272838  1
  Pb  Pb92  1  0.25489235  0.74471053  -0.00116388  1
  Pb  Pb93  1  0.25018610  0.75204686  0.25480631  1
  Pb  Pb94  1  0.24915958  0.74402489  0.50849682  1
  Pb  Pb95  1  0.24987302  0.74982955  0.73453786  1
  Pb  Pb96  1  0.50419738  -0.00133161  -0.00456721  1
  Pb  Pb97  1  0.49881464  0.00909581  0.25437243  1
  Pb  Pb98  1  0.50247244  -0.00600915  0.50048162  1
  Pb  Pb99  1  0.50808610  0.00064429  0.74969059  1
  Pb  Pb100  1  0.49705456  0.24856566  -0.00500561  1
  Pb  Pb101  1  0.49930468  0.26039955  0.26243920  1
  Pb  Pb102  1  0.50180791  0.25055535  0.48968447  1
  Pb  Pb103  1  0.49675464  0.24711342  0.74635235  1
  Pb  Pb104  1  0.50323658  0.50721057  0.00301868  1
  Pb  Pb105  1  0.50565814  0.50044237  0.25639862  1
  Pb  Pb106  1  0.50528776  0.48774328  0.49862261  1
  Pb  Pb107  1  0.49385116  0.49148882  0.74075619  1
  Pb  Pb108  1  0.51116910  0.74622205  0.00523946  1
  Pb  Pb109  1  0.50659269  0.74487333  0.24844247  1
  Pb  Pb110  1  0.50261182  0.75898323  0.50585989  1
  Pb  Pb111  1  0.50602042  0.75211443  0.74528644  1
  Pb  Pb112  1  0.74692558  -0.00348586  -0.00637909  1
  Pb  Pb113  1  0.74795549  0.00089971  0.24663308  1
  Pb  Pb114  1  0.76081852  -0.00035366  0.50625193  1
  Pb  Pb115  1  0.74465589  -0.00072609  0.74810380  1
  Pb  Pb116  1  0.75284002  0.25131770  -0.00415427  1
  Pb  Pb117  1  0.73920409  0.25162112  0.25654973  1
  Pb  Pb118  1  0.74870322  0.24352903  0.49840288  1
  Pb  Pb119  1  0.75111929  0.24652700  0.75241214  1
  Pb  Pb120  1  0.75346672  0.50884412  0.00030418  1
  Pb  Pb121  1  0.75113449  0.50946278  0.24780091  1
  Pb  Pb122  1  0.74256923  0.50107152  0.49393338  1
  Pb  Pb123  1  0.75185154  0.50851708  0.75458047  1
  Pb  Pb124  1  0.74564932  0.74682881  0.00005364  1
  Pb  Pb125  1  0.75127898  0.74828078  0.23931604  1
  Pb  Pb126  1  0.75064170  0.75378150  0.49660155  1
  Pb  Pb127  1  0.74043594  0.74965788  0.75347678  1
  O  O128  1  0.12667297  0.00173331  0.16689315  1
  O  O129  1  0.12414356  -0.00727817  0.41581969  1
  O  O130  1  0.12705249  0.01212879  0.66295464  1
  O  O131  1  0.12805908  0.00600341  0.90983427  1
  O  O132  1  0.12724027  0.24955010  0.16792369  1
  O  O133  1  0.11837765  0.25395344  0.41586708  1
  O  O134  1  0.12803576  0.24329404  0.66010561  1
  O  O135  1  0.12848597  0.24772132  0.91297066  1
  O  O136  1  0.12958813  0.50251138  0.16693688  1
  O  O137  1  0.11732961  0.49581951  0.41651550  1
  O  O138  1  0.11966239  0.49679672  0.66143122  1
  O  O139  1  0.13122509  0.49884542  0.90795109  1
  O  O140  1  0.12888516  0.74723679  0.16449415  1
  O  O141  1  0.12214058  0.75383957  0.41915072  1
  O  O142  1  0.12109451  0.74760412  0.65911844  1
  O  O143  1  0.13048185  0.74406054  0.90637620  1
  O  O144  1  0.36987671  -0.00386560  0.16981509  1
  O  O145  1  0.37150352  -0.01035558  0.41354578  1
  O  O146  1  0.37934732  0.00736787  0.66127015  1
  O  O147  1  0.37209577  -0.00568304  0.90788901  1
  O  O148  1  0.37253828  0.25058876  0.17156508  1
  O  O149  1  0.37169737  0.24660072  0.41278597  1
  O  O150  1  0.37726946  0.24407977  0.65702917  1
  O  O151  1  0.37333170  0.25277398  0.91646312  1
  O  O152  1  0.37192969  0.49572973  0.17123929  1
  O  O153  1  0.36852169  0.50767710  0.41044620  1
  O  O154  1  0.37808895  0.50086728  0.65427159  1
  O  O155  1  0.37067380  0.50596816  0.91304021  1
  O  O156  1  0.36902735  0.75844094  0.16658409  1
  O  O157  1  0.37021217  0.75291135  0.42031510  1
  O  O158  1  0.37748051  0.74817273  0.65630541  1
  O  O159  1  0.36769494  0.74671596  0.91050778  1
  O  O160  1  0.62367173  0.00333898  0.16601876  1
  O  O161  1  0.62378377  -0.00961705  0.41177627  1
  O  O162  1  0.62225568  0.00734296  0.66160615  1
  O  O163  1  0.62297232  -0.00192523  0.91415411  1
  O  O164  1  0.62322319  0.25012120  0.17047892  1
  O  O165  1  0.62961290  0.24578146  0.41042792  1
  O  O166  1  0.62467725  0.24621067  0.65874996  1
  O  O167  1  0.62269367  0.25836390  0.91358348  1
  O  O168  1  0.62094292  0.49177862  0.16479166  1
  O  O169  1  0.62851563  0.50200543  0.40984284  1
  O  O170  1  0.63066046  0.50570169  0.66085594  1
  O  O171  1  0.62248808  0.49551201  0.91701150  1
  O  O172  1  0.62074163  0.75415583  0.16245520  1
  O  O173  1  0.62297981  0.75686888  0.41295309  1
  O  O174  1  0.63017251  0.74032472  0.66089050  1
  O  O175  1  0.62269032  0.74827339  0.91835405  1
  O  O176  1  0.87960733  0.00973070  0.16559478  1
  O  O177  1  0.87462817  -0.00175464  0.41512871  1
  O  O178  1  0.87239621  0.00223118  0.66723050  1
  O  O179  1  0.87867564  -0.00391100  0.91023844  1
  O  O180  1  0.87805327  0.24305133  0.16593475  1
  O  O181  1  0.87602375  0.24525133  0.41192408  1
  O  O182  1  0.87156187  0.25512048  0.66351133  1
  O  O183  1  0.87834590  0.24985118  0.91822212  1
  O  O184  1  0.87906059  0.49661106  0.16549804  1
  O  O185  1  0.87678139  0.49490160  0.40474845  1
  O  O186  1  0.87260887  0.49747180  0.66214681  1
  O  O187  1  0.87994479  0.49983989  0.91845984  1
  O  O188  1  0.88168954  0.75164215  0.16343871  1
  O  O189  1  0.87747460  0.75676865  0.41337116  1
  O  O190  1  0.87305240  0.74466719  0.65928223  1
  O  O191  1  0.88189826  0.75440547  0.91256967  1
  O  O192  1  0.00009446  0.12615848  0.16598872  1
  O  O193  1  -0.00645015  0.12088933  0.41737233  1
  O  O194  1  0.00480946  0.12722957  0.65455024  1
  O  O195  1  0.00793097  0.12613843  0.91000761  1
  O  O196  1  0.00803272  0.37319169  0.16671479  1
  O  O197  1  -0.00755930  0.37105443  0.41698305  1
  O  O198  1  -0.00973210  0.37298375  0.66225962  1
  O  O199  1  0.01376189  0.37343410  0.91561262  1
  O  O200  1  0.01302043  0.62423774  0.16563453  1
  O  O201  1  0.00052261  0.62707990  0.41714794  1
  O  O202  1  -0.00993953  0.62134998  0.66070054  1
  O  O203  1  0.01226582  0.62207089  0.91028853  1
  O  O204  1  0.00937901  0.87712302  0.16634220  1
  O  O205  1  0.00274137  0.87637332  0.41589819  1
  O  O206  1  -0.00313123  0.87767060  0.66531771  1
  O  O207  1  0.00042617  0.87642416  0.91151808  1
  O  O208  1  0.24946972  0.12451762  0.16993764  1
  O  O209  1  0.24739659  0.12116794  0.41680972  1
  O  O210  1  0.25399949  0.12552775  0.65693676  1
  O  O211  1  0.24586773  0.12572695  0.91407200  1
  O  O212  1  0.24815780  0.37396554  0.17264110  1
  O  O213  1  0.23982201  0.37648805  0.41401602  1
  O  O214  1  0.25093771  0.37266596  0.65223779  1
  O  O215  1  0.24430877  0.37354531  0.91508512  1
  O  O216  1  0.24586403  0.62532359  0.17291623  1
  O  O217  1  0.24395356  0.62712935  0.42063378  1
  O  O218  1  0.24956736  0.62304283  0.65430636  1
  O  O219  1  0.24764093  0.62304361  0.91510278  1
  O  O220  1  0.24845630  0.87684382  0.17160946  1
  O  O221  1  0.24625773  0.87185484  0.41695176  1
  O  O222  1  0.25212505  0.87973456  0.65833967  1
  O  O223  1  0.25431327  0.87415175  0.91349201  1
  O  O224  1  0.49770100  0.12399424  0.16962598  1
  O  O225  1  0.49979830  0.11881749  0.40970747  1
  O  O226  1  0.50064337  0.12689581  0.65907574  1
  O  O227  1  0.49858310  0.12545729  0.91600713  1
  O  O228  1  0.50025406  0.37111601  0.17111852  1
  O  O229  1  0.50108213  0.37647006  0.40932636  1
  O  O230  1  0.50299632  0.37551960  0.65793031  1
  O  O231  1  0.50392942  0.37797115  0.91490831  1
  O  O232  1  0.49407153  0.62405670  0.16882827  1
  O  O233  1  0.49480624  0.62953401  0.41055773  1
  O  O234  1  0.50826780  0.62366960  0.65140423  1
  O  O235  1  0.49116854  0.62466847  0.91073461  1
  O  O236  1  0.49006910  0.87937042  0.16314911  1
  O  O237  1  0.49786220  0.87201436  0.41112714  1
  O  O238  1  0.50214641  0.87420816  0.66624146  1
  O  O239  1  0.48676175  0.87100958  0.91255045  1
  O  O240  1  0.75451277  0.12564295  0.16232926  1
  O  O241  1  0.75674498  0.12013046  0.41383629  1
  O  O242  1  0.74151960  0.12685710  0.66345814  1
  O  O243  1  0.74971534  0.12585000  0.91458184  1
  O  O244  1  0.74486328  0.37087362  0.16216832  1
  O  O245  1  0.76153131  0.37045081  0.41024411  1
  O  O246  1  0.75398074  0.37522937  0.66388741  1
  O  O247  1  0.74221015  0.37722813  0.91394307  1
  O  O248  1  0.74912625  0.62303158  0.15948674  1
  O  O249  1  0.75251856  0.63026023  0.41178909  1
  O  O250  1  0.75328966  0.62189473  0.66512546  1
  O  O251  1  0.75198356  0.62497309  0.91619261  1
  O  O252  1  0.75235500  0.87921850  0.15991714  1
  O  O253  1  0.74811254  0.87372668  0.40741178  1
  O  O254  1  0.74798335  0.87529370  0.66607310  1
  O  O255  1  0.75924006  0.87268431  0.91103408  1
  O  O256  1  0.12612505  0.12476810  0.05164340  1
  O  O257  1  0.11864668  0.12228153  0.28902001  1
  O  O258  1  0.12405811  0.12680340  0.54319103  1
  O  O259  1  0.12621313  0.12988895  0.79541986  1
  O  O260  1  0.12909642  0.37590552  0.05015950  1
  O  O261  1  0.11973880  0.37446923  0.30601289  1
  O  O262  1  0.11105954  0.37395706  0.53089272  1
  O  O263  1  0.12648342  0.37558451  0.79690541  1
  O  O264  1  0.13340414  0.62199442  0.05131959  1
  O  O265  1  0.12573237  0.62530346  0.30508060  1
  O  O266  1  0.11824704  0.62096502  0.53106462  1
  O  O267  1  0.12648003  0.62490175  0.79393501  1
  O  O268  1  0.12869090  0.87570155  0.04824482  1
  O  O269  1  0.12609059  0.87226917  0.30459086  1
  O  O270  1  0.11684226  0.88020876  0.53676877  1
  O  O271  1  0.12599702  0.87802866  0.78055210  1
  O  O272  1  0.37339820  0.12358329  0.05662185  1
  O  O273  1  0.37009960  0.11861711  0.28361671  1
  O  O274  1  0.37454688  0.12210047  0.54550725  1
  O  O275  1  0.37605204  0.13518499  0.78197690  1
  O  O276  1  0.37484173  0.37589365  0.05492717  1
  O  O277  1  0.36698834  0.37268672  0.29270929  1
  O  O278  1  0.37739716  0.37557889  0.52273925  1
  O  O279  1  0.37644320  0.37449685  0.78426692  1
  O  O280  1  0.36448668  0.62478180  0.03944920  1
  O  O281  1  0.36744723  0.63361920  0.30877290  1
  O  O282  1  0.36796682  0.62389041  0.52288639  1
  O  O283  1  0.37396654  0.62482875  0.79767794  1
  O  O284  1  0.37028364  0.87797607  0.05139421  1
  O  O285  1  0.37256623  0.86791882  0.30467532  1
  O  O286  1  0.38558886  0.87855368  0.53095465  1
  O  O287  1  0.37303667  0.87324676  0.79467852  1
  O  O288  1  0.62178515  0.12770267  0.05373120  1
  O  O289  1  0.63133568  0.12062327  0.28206236  1
  O  O290  1  0.62697410  0.12559840  0.54661450  1
  O  O291  1  0.62080157  0.12639616  0.78348083  1
  O  O292  1  0.62015285  0.37125893  0.05507884  1
  O  O293  1  0.62645414  0.36864596  0.28544566  1
  O  O294  1  0.62804456  0.38183802  0.53005933  1
  O  O295  1  0.62210005  0.37841374  0.79739842  1
  O  O296  1  0.61441205  0.62326092  0.03800307  1
  O  O297  1  0.62162857  0.62477838  0.28136478  1
  O  O298  1  0.63317050  0.62233330  0.54422049  1
  O  O299  1  0.63156971  0.62606188  0.78641171  1
  O  O300  1  0.61916656  0.87560095  0.03161229  1
  O  O301  1  0.62564244  0.87485195  0.29744290  1
  O  O302  1  0.61934273  0.87221241  0.53430054  1
  O  O303  1  0.62115281  0.86787936  0.78833464  1
  O  O304  1  0.87645628  0.12627138  0.04872825  1
  O  O305  1  0.87754631  0.12425084  0.30139428  1
  O  O306  1  0.86314866  0.12216004  0.53817459  1
  O  O307  1  0.87325649  0.13778449  0.78244005  1
  O  O308  1  0.88342326  0.37248064  0.03653062  1
  O  O309  1  0.87985872  0.37358931  0.29520619  1
  O  O310  1  0.87118087  0.37506834  0.54761848  1
  O  O311  1  0.88213582  0.37204965  0.79121311  1
  O  O312  1  0.88808490  0.62511129  0.03787463  1
  O  O313  1  0.88208215  0.62512459  0.28206407  1
  O  O314  1  0.86998661  0.62564180  0.54872731  1
  O  O315  1  0.87480754  0.61706608  0.78582327  1
  O  O316  1  0.88914770  0.87630550  0.03532704  1
  O  O317  1  0.88071712  0.87691962  0.29772876  1
  O  O318  1  0.87304554  0.88224400  0.53404646  1
  O  O319  1  0.87893144  0.87358887  0.79731635  1
