# generated using pymatgen
data_VFe(PbO3)2
_symmetry_space_group_name_H-M   'P 1'
_cell_length_a   15.38322348
_cell_length_b   15.39809742
_cell_length_c   18.47844704
_cell_angle_alpha   90.04918253
_cell_angle_beta   90.00345455
_cell_angle_gamma   89.98629921
_symmetry_Int_Tables_number   1
_chemical_formula_structural   VFe(PbO3)2
_chemical_formula_sum   'V32 Fe32 Pb64 O192'
_cell_volume   4377.03186812
_cell_formula_units_Z   32
loop_
 _symmetry_equiv_pos_site_id
 _symmetry_equiv_pos_as_xyz
  1  'x, y, z'
loop_
 _atom_site_type_symbol
 _atom_site_label
 _atom_site_symmetry_multiplicity
 _atom_site_fract_x
 _atom_site_fract_y
 _atom_site_fract_z
 _atom_site_occupancy
  V  V0  1  0.37518059  0.87235418  0.64068208  1
  V  V1  1  0.37779319  0.62428427  0.89155622  1
  V  V2  1  0.87591734  0.87603040  0.39447353  1
  V  V3  1  0.12460024  0.62495208  0.89016286  1
  V  V4  1  0.37472292  0.12633475  0.39391647  1
  V  V5  1  0.12327614  0.12643820  0.13671007  1
  V  V6  1  0.87299145  0.62702222  0.38984878  1
  V  V7  1  0.87469014  0.37770182  0.88712505  1
  V  V8  1  0.37471036  0.13655131  0.64203622  1
  V  V9  1  0.62473549  0.87301790  0.39745789  1
  V  V10  1  0.12601444  0.12664869  0.39547416  1
  V  V11  1  0.37552882  0.62556794  0.38603382  1
  V  V12  1  0.87494118  0.62141693  0.64238673  1
  V  V13  1  0.37413975  0.87866243  0.39233032  1
  V  V14  1  0.12268734  0.87967155  0.13702900  1
  V  V15  1  0.62189437  0.12518777  0.39677508  1
  V  V16  1  0.62335409  0.12400644  0.88381399  1
  V  V17  1  0.87363689  0.12647768  0.88125600  1
  V  V18  1  0.12814841  0.37977121  0.39000684  1
  V  V19  1  0.37402881  0.38542979  0.64248435  1
  V  V20  1  0.12802001  0.62622332  0.64369687  1
  V  V21  1  0.37363599  0.12044463  0.13655458  1
  V  V22  1  0.62264609  0.37728548  0.39066867  1
  V  V23  1  0.87111763  0.87920333  0.13942806  1
  V  V24  1  0.87411873  0.87409501  0.64039777  1
  V  V25  1  0.12353350  0.37831113  0.64309625  1
  V  V26  1  0.62631447  0.12642840  0.14068952  1
  V  V27  1  0.61888308  0.62561004  0.64183428  1
  V  V28  1  0.62714958  0.87248903  0.88579372  1
  V  V29  1  0.37323441  0.12468095  0.88149811  1
  V  V30  1  0.12356100  0.62807991  0.38512808  1
  V  V31  1  0.62479119  0.88070894  0.13793057  1
  Fe  Fe32  1  0.37141799  0.62599432  0.63865329  1
  Fe  Fe33  1  0.12642968  0.87592666  0.39219415  1
  Fe  Fe34  1  0.12426880  0.37301014  0.89225008  1
  Fe  Fe35  1  0.12810227  0.12588484  0.64847542  1
  Fe  Fe36  1  0.62492394  0.62647848  0.38234390  1
  Fe  Fe37  1  0.87363246  0.37920251  0.62897772  1
  Fe  Fe38  1  0.87416017  0.12764395  0.62832308  1
  Fe  Fe39  1  0.37731647  0.87378677  0.89299788  1
  Fe  Fe40  1  0.87490992  0.37042464  0.13333239  1
  Fe  Fe41  1  0.87605358  0.37545808  0.39628235  1
  Fe  Fe42  1  0.37565153  0.37450574  0.89280067  1
  Fe  Fe43  1  0.87525978  0.62580992  0.88832368  1
  Fe  Fe44  1  0.87288649  0.87577783  0.87920163  1
  Fe  Fe45  1  0.12408930  0.87098616  0.64267241  1
  Fe  Fe46  1  0.37615538  0.37233046  0.12983872  1
  Fe  Fe47  1  0.62134805  0.12435156  0.63421774  1
  Fe  Fe48  1  0.12381758  0.87544867  0.87828536  1
  Fe  Fe49  1  0.12304049  0.62473670  0.13089258  1
  Fe  Fe50  1  0.37507714  0.87972737  0.12796132  1
  Fe  Fe51  1  0.87768791  0.62686432  0.12912065  1
  Fe  Fe52  1  0.62688276  0.62674444  0.12930803  1
  Fe  Fe53  1  0.62473244  0.87043691  0.63344166  1
  Fe  Fe54  1  0.12341544  0.37231667  0.12792895  1
  Fe  Fe55  1  0.37298416  0.37214604  0.38607004  1
  Fe  Fe56  1  0.87558877  0.12152599  0.13907945  1
  Fe  Fe57  1  0.37354387  0.62971905  0.13013495  1
  Fe  Fe58  1  0.62721027  0.37136538  0.88999391  1
  Fe  Fe59  1  0.62684094  0.37158396  0.12963598  1
  Fe  Fe60  1  0.12369667  0.12599264  0.87387207  1
  Fe  Fe61  1  0.62593132  0.62306940  0.89177195  1
  Fe  Fe62  1  0.62272383  0.37823760  0.63704627  1
  Fe  Fe63  1  0.87508693  0.12364617  0.39967416  1
  Pb  Pb64  1  0.00107055  0.00073649  -0.01281727  1
  Pb  Pb65  1  0.00451152  -0.00127800  0.25645654  1
  Pb  Pb66  1  0.01522226  0.00142154  0.51370503  1
  Pb  Pb67  1  0.00566003  0.00034362  0.74594468  1
  Pb  Pb68  1  -0.00279950  0.25375325  -0.00150764  1
  Pb  Pb69  1  -0.01084931  0.25420596  0.25419346  1
  Pb  Pb70  1  -0.00671239  0.24693858  0.50475004  1
  Pb  Pb71  1  0.00065885  0.24614150  0.74345900  1
  Pb  Pb72  1  0.00208828  0.50257482  0.00205621  1
  Pb  Pb73  1  -0.00354125  0.49475149  0.23948371  1
  Pb  Pb74  1  -0.00363168  0.50015341  0.50025412  1
  Pb  Pb75  1  -0.00244619  0.50298053  0.75424500  1
  Pb  Pb76  1  -0.00258845  0.74774812  -0.00499626  1
  Pb  Pb77  1  0.00372832  0.75201338  0.24658110  1
  Pb  Pb78  1  0.00630507  0.75425334  0.50388102  1
  Pb  Pb79  1  -0.01067037  0.75062041  0.75728907  1
  Pb  Pb80  1  0.24905954  -0.00478508  -0.01058868  1
  Pb  Pb81  1  0.24385106  -0.00283760  0.25153065  1
  Pb  Pb82  1  0.24172417  0.00149050  0.51266737  1
  Pb  Pb83  1  0.24526702  -0.00547116  0.75146982  1
  Pb  Pb84  1  0.24585848  0.25681788  -0.00375207  1
  Pb  Pb85  1  0.25411622  0.25624635  0.24616729  1
  Pb  Pb86  1  0.24518432  0.24489734  0.50707842  1
  Pb  Pb87  1  0.24851199  0.26525204  0.76244156  1
  Pb  Pb88  1  0.24814179  0.50172506  0.00192174  1
  Pb  Pb89  1  0.25212270  0.49827998  0.23554658  1
  Pb  Pb90  1  0.25706565  0.50887588  0.49885688  1
  Pb  Pb91  1  0.24894057  0.49211504  0.76221160  1
  Pb  Pb92  1  0.24993484  0.74555717  -0.00101833  1
  Pb  Pb93  1  0.25178354  0.75289887  0.24162393  1
  Pb  Pb94  1  0.25473904  0.74720492  0.50184503  1
  Pb  Pb95  1  0.25250926  0.75938623  0.75822829  1
  Pb  Pb96  1  0.49898103  -0.00180200  -0.00270331  1
  Pb  Pb97  1  0.49969094  0.00059988  0.24971245  1
  Pb  Pb98  1  0.50617147  0.00074324  0.50729494  1
  Pb  Pb99  1  0.49639725  -0.00633867  0.74815844  1
  Pb  Pb100  1  0.50154584  0.25584851  -0.00005944  1
  Pb  Pb101  1  0.49584028  0.25922158  0.24988502  1
  Pb  Pb102  1  0.50726941  0.25373583  0.50551093  1
  Pb  Pb103  1  0.50461667  0.26486982  0.75542083  1
  Pb  Pb104  1  0.50505164  0.49029739  0.00147649  1
  Pb  Pb105  1  0.50069030  0.50217042  0.23566385  1
  Pb  Pb106  1  0.50108997  0.50023904  0.49825071  1
  Pb  Pb107  1  0.51270068  0.50022000  0.76352666  1
  Pb  Pb108  1  0.49797400  0.73907619  0.00435238  1
  Pb  Pb109  1  0.50279435  0.74501001  0.24476826  1
  Pb  Pb110  1  0.49918645  0.74920850  0.50101007  1
  Pb  Pb111  1  0.49496462  0.75147389  0.75533827  1
  Pb  Pb112  1  0.75584685  0.00861529  -0.00327298  1
  Pb  Pb113  1  0.75721226  0.00792660  0.25948126  1
  Pb  Pb114  1  0.74766658  0.00544950  0.50706459  1
  Pb  Pb115  1  0.74819734  -0.00055694  0.74048032  1
  Pb  Pb116  1  0.76034633  0.25003111  0.00251931  1
  Pb  Pb117  1  0.76545369  0.25412589  0.25862452  1
  Pb  Pb118  1  0.75063819  0.24674349  0.50378568  1
  Pb  Pb119  1  0.74722294  0.25557514  0.73582034  1
  Pb  Pb120  1  0.74504512  0.49925209  -0.00121318  1
  Pb  Pb121  1  0.74990153  0.49876107  0.23638926  1
  Pb  Pb122  1  0.74509770  0.48974850  0.50391779  1
  Pb  Pb123  1  0.74401726  0.50451627  0.75276992  1
  Pb  Pb124  1  0.75513694  0.74101835  -0.00278076  1
  Pb  Pb125  1  0.74664846  0.74307159  0.24809090  1
  Pb  Pb126  1  0.74699148  0.75125980  0.50416445  1
  Pb  Pb127  1  0.75508320  0.74275134  0.75423726  1
  O  O128  1  0.12419579  0.00085569  0.16885387  1
  O  O129  1  0.12828307  0.00458124  0.42180898  1
  O  O130  1  0.12711876  -0.00365871  0.66465195  1
  O  O131  1  0.12292249  0.00370348  0.90699406  1
  O  O132  1  0.12700118  0.23983200  0.15746413  1
  O  O133  1  0.12839410  0.24642802  0.41686209  1
  O  O134  1  0.13082664  0.26028962  0.66314492  1
  O  O135  1  0.12568875  0.24439042  0.91077323  1
  O  O136  1  0.12465743  0.49827084  0.15812847  1
  O  O137  1  0.12685366  0.49969840  0.40972027  1
  O  O138  1  0.12945684  0.49775180  0.67113131  1
  O  O139  1  0.12478328  0.50518415  0.91407940  1
  O  O140  1  0.12172152  0.76282882  0.15799904  1
  O  O141  1  0.12503495  0.74786130  0.41538173  1
  O  O142  1  0.12331326  0.74097484  0.66241916  1
  O  O143  1  0.12613985  0.74469502  0.90869444  1
  O  O144  1  0.37512575  0.00131048  0.16838550  1
  O  O145  1  0.37712806  -0.00345018  0.41837945  1
  O  O146  1  0.37535461  -0.01107085  0.66147292  1
  O  O147  1  0.38117107  0.00816232  0.90997383  1
  O  O148  1  0.37669290  0.23894252  0.16426167  1
  O  O149  1  0.37347087  0.24606916  0.42043022  1
  O  O150  1  0.37453257  0.25174840  0.65913974  1
  O  O151  1  0.37789087  0.23762419  0.91093061  1
  O  O152  1  0.37527187  0.50079500  0.15551320  1
  O  O153  1  0.37141603  0.50229498  0.41012184  1
  O  O154  1  0.37087804  0.49866865  0.66471944  1
  O  O155  1  0.37390605  0.50722171  0.91245417  1
  O  O156  1  0.37345833  0.75856623  0.16164875  1
  O  O157  1  0.37362226  0.75376079  0.41526651  1
  O  O158  1  0.37466088  0.75109458  0.66944037  1
  O  O159  1  0.37407716  0.74408583  0.91396438  1
  O  O160  1  0.62790205  -0.00286235  0.17194849  1
  O  O161  1  0.62297878  -0.00252342  0.42049892  1
  O  O162  1  0.62228279  -0.00405448  0.66106258  1
  O  O163  1  0.62732584  0.00515698  0.91151131  1
  O  O164  1  0.62155478  0.23932966  0.15967474  1
  O  O165  1  0.62142650  0.25415576  0.41750252  1
  O  O166  1  0.61751386  0.25088409  0.66063939  1
  O  O167  1  0.62760033  0.23878626  0.90888842  1
  O  O168  1  0.62595243  0.50032352  0.15443745  1
  O  O169  1  0.62289115  0.49777011  0.41036360  1
  O  O170  1  0.62162299  0.50676586  0.66830200  1
  O  O171  1  0.62605932  0.49665493  0.91602309  1
  O  O172  1  0.62844474  0.76424851  0.16024800  1
  O  O173  1  0.62454159  0.74985089  0.41893677  1
  O  O174  1  0.62646479  0.74194815  0.66451855  1
  O  O175  1  0.62563754  0.75800550  0.90661812  1
  O  O176  1  0.87475866  -0.00438231  0.17257970  1
  O  O177  1  0.87148658  -0.00971528  0.41625107  1
  O  O178  1  0.87289607  -0.00803368  0.65420387  1
  O  O179  1  0.87073952  0.00694680  0.90544841  1
  O  O180  1  0.87464545  0.24375370  0.16972708  1
  O  O181  1  0.87662997  0.25080741  0.42094386  1
  O  O182  1  0.87685571  0.25471284  0.65325227  1
  O  O183  1  0.87132122  0.24458334  0.90894090  1
  O  O184  1  0.87568336  0.49997927  0.15769729  1
  O  O185  1  0.87938229  0.50942919  0.41130900  1
  O  O186  1  0.87861192  0.50228967  0.66710420  1
  O  O187  1  0.87753991  0.49300573  0.90744899  1
  O  O188  1  0.87842087  0.76429819  0.16217028  1
  O  O189  1  0.87748302  0.74786499  0.42047633  1
  O  O190  1  0.87590998  0.74422867  0.66608220  1
  O  O191  1  0.87429994  0.75298062  0.91212297  1
  O  O192  1  0.00780886  0.11925840  0.16286925  1
  O  O193  1  0.00936888  0.12298257  0.41638676  1
  O  O194  1  -0.00227259  0.12508185  0.66022935  1
  O  O195  1  -0.00948043  0.12553732  0.90117796  1
  O  O196  1  0.00142773  0.36885757  0.16436852  1
  O  O197  1  0.01272872  0.37417752  0.41793826  1
  O  O198  1  0.00718878  0.37947507  0.65957549  1
  O  O199  1  -0.00781379  0.36862564  0.91061198  1
  O  O200  1  -0.00041142  0.63135373  0.16516376  1
  O  O201  1  0.00042511  0.62721348  0.41522076  1
  O  O202  1  0.00628233  0.61899595  0.66759634  1
  O  O203  1  0.00547710  0.62455493  0.91076014  1
  O  O204  1  0.00021412  0.88317186  0.16424380  1
  O  O205  1  -0.00601924  0.87356254  0.41918061  1
  O  O206  1  -0.00787667  0.86872667  0.66204367  1
  O  O207  1  -0.00121066  0.87750883  0.90833007  1
  O  O208  1  0.24668675  0.11894468  0.16251922  1
  O  O209  1  0.24971899  0.12306798  0.42270014  1
  O  O210  1  0.26216730  0.12104280  0.66825614  1
  O  O211  1  0.25693040  0.12099661  0.89883635  1
  O  O212  1  0.24986391  0.36836194  0.15801217  1
  O  O213  1  0.24309916  0.37281699  0.41744422  1
  O  O214  1  0.25402325  0.37609392  0.66933851  1
  O  O215  1  0.25118504  0.37414329  0.91692342  1
  O  O216  1  0.24729340  0.63108447  0.16340343  1
  O  O217  1  0.24853332  0.62733545  0.41419595  1
  O  O218  1  0.24300110  0.62295385  0.67043297  1
  O  O219  1  0.24873289  0.62484976  0.91256100  1
  O  O220  1  0.24204301  0.88170251  0.15729940  1
  O  O221  1  0.25776349  0.87633933  0.41553383  1
  O  O222  1  0.25583205  0.86854661  0.66365067  1
  O  O223  1  0.24890814  0.87633436  0.91053596  1
  O  O224  1  0.50404079  0.11550949  0.16331919  1
  O  O225  1  0.49719805  0.12367870  0.42214866  1
  O  O226  1  0.48922969  0.11976181  0.66549243  1
  O  O227  1  0.50519197  0.12288206  0.90703740  1
  O  O228  1  0.50133145  0.37009010  0.16282836  1
  O  O229  1  0.50230147  0.37595346  0.41482437  1
  O  O230  1  0.49010189  0.37718402  0.66487451  1
  O  O231  1  0.50074472  0.36994143  0.91417105  1
  O  O232  1  0.50127989  0.63278158  0.15903379  1
  O  O233  1  0.49596967  0.62705104  0.41098527  1
  O  O234  1  0.50245039  0.62531479  0.66249003  1
  O  O235  1  0.49508462  0.62682615  0.91165829  1
  O  O236  1  0.50729072  0.88105552  0.15895437  1
  O  O237  1  0.49524534  0.87299548  0.41869608  1
  O  O238  1  0.49585126  0.86796494  0.66409804  1
  O  O239  1  0.51072765  0.88028073  0.91410906  1
  O  O240  1  0.74171616  0.11908293  0.16929736  1
  O  O241  1  0.74280642  0.12422448  0.41932740  1
  O  O242  1  0.74911875  0.12431497  0.65848946  1
  O  O243  1  0.74975546  0.12382114  0.90897471  1
  O  O244  1  0.74881115  0.36989821  0.16410345  1
  O  O245  1  0.74199180  0.37662625  0.41427366  1
  O  O246  1  0.74899459  0.38034631  0.65754578  1
  O  O247  1  0.75775652  0.37051004  0.91139346  1
  O  O248  1  0.75293078  0.63313580  0.15918278  1
  O  O249  1  0.75682715  0.62734024  0.41205171  1
  O  O250  1  0.74854462  0.62176332  0.66354337  1
  O  O251  1  0.75121752  0.62410008  0.91414100  1
  O  O252  1  0.75289336  0.88040424  0.16380804  1
  O  O253  1  0.75430294  0.86905311  0.41952303  1
  O  O254  1  0.75439467  0.86711679  0.66127877  1
  O  O255  1  0.74289214  0.88022583  0.91085257  1
  O  O256  1  0.12357017  0.12056562  0.04572916  1
  O  O257  1  0.13118893  0.12358867  0.30450689  1
  O  O258  1  0.13423041  0.12246809  0.54543065  1
  O  O259  1  0.12077471  0.12506354  0.77192719  1
  O  O260  1  0.12006601  0.36973130  0.02672123  1
  O  O261  1  0.12853845  0.37303255  0.29915971  1
  O  O262  1  0.13028082  0.38261472  0.55221430  1
  O  O263  1  0.13442095  0.37570206  0.79021033  1
  O  O264  1  0.12352929  0.62589219  0.03077390  1
  O  O265  1  0.12289127  0.63051044  0.29432600  1
  O  O266  1  0.12891441  0.62017021  0.55215776  1
  O  O267  1  0.12584535  0.62186808  0.79866682  1
  O  O268  1  0.11857099  0.88546237  0.04615011  1
  O  O269  1  0.12372819  0.88464400  0.29254639  1
  O  O270  1  0.12104119  0.87766256  0.54000268  1
  O  O271  1  0.12867068  0.87294037  0.77671310  1
  O  O272  1  0.37482855  0.12062930  0.04542665  1
  O  O273  1  0.37414808  0.12424646  0.30292960  1
  O  O274  1  0.37260050  0.12765136  0.55026862  1
  O  O275  1  0.37984842  0.12537142  0.79018548  1
  O  O276  1  0.38094771  0.36504229  0.02920674  1
  O  O277  1  0.37291956  0.36173021  0.28695436  1
  O  O278  1  0.37085605  0.38242567  0.55098511  1
  O  O279  1  0.37080259  0.37148712  0.79026194  1
  O  O280  1  0.37230332  0.63368657  0.03013329  1
  O  O281  1  0.37326269  0.63099070  0.29491488  1
  O  O282  1  0.36435418  0.62741534  0.53879529  1
  O  O283  1  0.37555322  0.62724560  0.79954967  1
  O  O284  1  0.37804209  0.88533528  0.02758474  1
  O  O285  1  0.37712083  0.87864504  0.30138511  1
  O  O286  1  0.37524263  0.86809956  0.54898507  1
  O  O287  1  0.38077240  0.86791735  0.79181914  1
  O  O288  1  0.62962701  0.11993301  0.04949755  1
  O  O289  1  0.61804269  0.12376632  0.30551374  1
  O  O290  1  0.61811661  0.12443507  0.53324204  1
  O  O291  1  0.62455906  0.12183905  0.79254694  1
  O  O292  1  0.62351019  0.36861459  0.02863787  1
  O  O293  1  0.62089929  0.37181693  0.29980696  1
  O  O294  1  0.61785411  0.38737355  0.53635834  1
  O  O295  1  0.61812717  0.37644870  0.78712428  1
  O  O296  1  0.62417603  0.63308946  0.02786873  1
  O  O297  1  0.62667619  0.63653880  0.28331942  1
  O  O298  1  0.62203599  0.62230717  0.55004813  1
  O  O299  1  0.62455324  0.61541354  0.78992272  1
  O  O300  1  0.62826184  0.88589717  0.04736940  1
  O  O301  1  0.62558733  0.87508953  0.30610982  1
  O  O302  1  0.62342737  0.86814339  0.53329085  1
  O  O303  1  0.62509641  0.87640493  0.79392658  1
  O  O304  1  0.86663563  0.12256362  0.03934287  1
  O  O305  1  0.86927746  0.12499701  0.29795619  1
  O  O306  1  0.87206336  0.12429228  0.52615967  1
  O  O307  1  0.87007025  0.12830833  0.79001613  1
  O  O308  1  0.87628034  0.36121910  0.03268731  1
  O  O309  1  0.87941589  0.36510220  0.29490789  1
  O  O310  1  0.87783680  0.38812338  0.52655899  1
  O  O311  1  0.87483018  0.37377494  0.79571234  1
  O  O312  1  0.88135908  0.63117446  0.02814733  1
  O  O313  1  0.87500295  0.63369179  0.29903707  1
  O  O314  1  0.87800087  0.62133942  0.55075655  1
  O  O315  1  0.87798412  0.62811520  0.78621344  1
  O  O316  1  0.87198341  0.88393218  0.04851383  1
  O  O317  1  0.87515114  0.87226879  0.30322334  1
  O  O318  1  0.87410380  0.86522221  0.54893498  1
  O  O319  1  0.87191374  0.86719824  0.77936560  1
