# generated using pymatgen
data_VFe(PbO3)2
_symmetry_space_group_name_H-M   'P 1'
_cell_length_a   15.37710382
_cell_length_b   15.36886041
_cell_length_c   18.52321259
_cell_angle_alpha   90.03939447
_cell_angle_beta   90.04196170
_cell_angle_gamma   90.00842283
_symmetry_Int_Tables_number   1
_chemical_formula_structural   VFe(PbO3)2
_chemical_formula_sum   'V32 Fe32 Pb64 O192'
_cell_volume   4377.56194255
_cell_formula_units_Z   32
loop_
 _symmetry_equiv_pos_site_id
 _symmetry_equiv_pos_as_xyz
  1  'x, y, z'
loop_
 _atom_site_type_symbol
 _atom_site_label
 _atom_site_symmetry_multiplicity
 _atom_site_fract_x
 _atom_site_fract_y
 _atom_site_fract_z
 _atom_site_occupancy
  V  V0  1  0.37300246  0.12795660  0.13655775  1
  V  V1  1  0.12631094  0.12988673  0.13567677  1
  V  V2  1  0.62337130  0.12413092  0.88846296  1
  V  V3  1  0.37852139  0.62425327  0.88856998  1
  V  V4  1  0.87535628  0.87374665  0.64087236  1
  V  V5  1  0.62322949  0.13024697  0.14191329  1
  V  V6  1  0.87149113  0.37566771  0.14456013  1
  V  V7  1  0.87600612  0.37584847  0.64121639  1
  V  V8  1  0.37332298  0.87703670  0.38811499  1
  V  V9  1  0.37264813  0.87220280  0.63879742  1
  V  V10  1  0.62637269  0.37004016  0.38908434  1
  V  V11  1  0.63826243  0.87931731  0.38343261  1
  V  V12  1  0.12611339  0.87482225  0.39197034  1
  V  V13  1  0.87696056  0.12202454  0.38911209  1
  V  V14  1  0.62509307  0.87703662  0.63792326  1
  V  V15  1  0.12453667  0.12405381  0.39314921  1
  V  V16  1  0.37487693  0.37623797  0.14519840  1
  V  V17  1  0.87290681  0.62401830  0.89176389  1
  V  V18  1  0.12691003  0.37410453  0.13904993  1
  V  V19  1  0.87404806  0.12640514  0.89226818  1
  V  V20  1  0.12459196  0.37848193  0.88310223  1
  V  V21  1  0.62967055  0.12865696  0.64019815  1
  V  V22  1  0.62515603  0.37878250  0.89034848  1
  V  V23  1  0.87882108  0.62748011  0.38799138  1
  V  V24  1  0.12578596  0.62315854  0.13913219  1
  V  V25  1  0.12288460  0.62562249  0.63898816  1
  V  V26  1  0.12328285  0.37495984  0.39857605  1
  V  V27  1  0.62450668  0.62144350  0.14083613  1
  V  V28  1  0.37289990  0.12212038  0.39665705  1
  V  V29  1  0.62793925  0.37772488  0.63269850  1
  V  V30  1  0.37706687  0.87529610  0.88838178  1
  V  V31  1  0.62659430  0.87261540  0.89848566  1
  Fe  Fe32  1  0.12333616  0.37621373  0.63041113  1
  Fe  Fe33  1  0.37615172  0.37783879  0.87772718  1
  Fe  Fe34  1  0.87740965  0.12985606  0.13118465  1
  Fe  Fe35  1  0.12378983  0.62536479  0.38329346  1
  Fe  Fe36  1  0.37404325  0.62166946  0.14096745  1
  Fe  Fe37  1  0.12656528  0.12672743  0.87877891  1
  Fe  Fe38  1  0.12624364  0.62364269  0.88428383  1
  Fe  Fe39  1  0.87635176  0.62058416  0.13414134  1
  Fe  Fe40  1  0.12592930  0.87235555  0.88839128  1
  Fe  Fe41  1  0.12392628  0.87345504  0.63821787  1
  Fe  Fe42  1  0.87478544  0.37339600  0.38423796  1
  Fe  Fe43  1  0.87376786  0.37561848  0.88212681  1
  Fe  Fe44  1  0.62105725  0.37510430  0.13767685  1
  Fe  Fe45  1  0.37190386  0.62623009  0.38813890  1
  Fe  Fe46  1  0.88264504  0.87620963  0.38015203  1
  Fe  Fe47  1  0.62830669  0.62862596  0.63009769  1
  Fe  Fe48  1  0.62395505  0.62699899  0.88652137  1
  Fe  Fe49  1  0.87260090  0.87473984  0.89505869  1
  Fe  Fe50  1  0.87450741  0.62743057  0.63520840  1
  Fe  Fe51  1  0.37901578  0.12680015  0.87683591  1
  Fe  Fe52  1  0.87581213  0.87557943  0.12984270  1
  Fe  Fe53  1  0.37836715  0.12108852  0.64431030  1
  Fe  Fe54  1  0.12088712  0.12382713  0.64154848  1
  Fe  Fe55  1  0.62079038  0.87510095  0.13280932  1
  Fe  Fe56  1  0.12896458  0.87680132  0.12684271  1
  Fe  Fe57  1  0.37604392  0.62972863  0.62899075  1
  Fe  Fe58  1  0.62446222  0.12209468  0.38504597  1
  Fe  Fe59  1  0.37499596  0.87531456  0.13523065  1
  Fe  Fe60  1  0.37500251  0.37039728  0.39933617  1
  Fe  Fe61  1  0.37671638  0.37549918  0.62864575  1
  Fe  Fe62  1  0.86955895  0.12280815  0.63952690  1
  Fe  Fe63  1  0.62623550  0.62528674  0.38997813  1
  Pb  Pb64  1  0.00517615  -0.00673264  -0.00409213  1
  Pb  Pb65  1  -0.00553307  -0.00436465  0.24066366  1
  Pb  Pb66  1  0.00850796  0.00093917  0.50828405  1
  Pb  Pb67  1  0.00401452  -0.00192173  0.75256845  1
  Pb  Pb68  1  -0.00308172  0.24838483  -0.00411024  1
  Pb  Pb69  1  -0.00277469  0.25602675  0.25234820  1
  Pb  Pb70  1  0.00408619  0.24510642  0.50666703  1
  Pb  Pb71  1  0.00416561  0.24521079  0.74695858  1
  Pb  Pb72  1  -0.00381534  0.50249543  -0.00151639  1
  Pb  Pb73  1  0.00413778  0.49850122  0.25204383  1
  Pb  Pb74  1  -0.00028111  0.49625528  0.50044394  1
  Pb  Pb75  1  0.00249057  0.50468337  0.74963071  1
  Pb  Pb76  1  0.00380644  0.75437827  -0.00237659  1
  Pb  Pb77  1  -0.00294720  0.75635829  0.24251756  1
  Pb  Pb78  1  -0.00029912  0.75079181  0.50081313  1
  Pb  Pb79  1  0.00601510  0.75322636  0.75743249  1
  Pb  Pb80  1  0.24843599  -0.00210779  -0.00808438  1
  Pb  Pb81  1  0.24912150  -0.00182070  0.24399563  1
  Pb  Pb82  1  0.23996000  0.00226482  0.51131635  1
  Pb  Pb83  1  0.24017552  0.00510248  0.75009193  1
  Pb  Pb84  1  0.25460946  0.24966832  -0.01489726  1
  Pb  Pb85  1  0.25413250  0.25753794  0.25783883  1
  Pb  Pb86  1  0.24420400  0.24843792  0.51067093  1
  Pb  Pb87  1  0.25164447  0.24776579  0.73903192  1
  Pb  Pb88  1  0.25648023  0.50692943  -0.00021832  1
  Pb  Pb89  1  0.25195497  0.50534727  0.26078460  1
  Pb  Pb90  1  0.25711142  0.50174791  0.49988434  1
  Pb  Pb91  1  0.25726439  0.49488144  0.73897496  1
  Pb  Pb92  1  0.25409977  0.75180830  0.00045960  1
  Pb  Pb93  1  0.25114993  0.74377166  0.24697605  1
  Pb  Pb94  1  0.25092302  0.74639105  0.49942705  1
  Pb  Pb95  1  0.23897668  0.74816201  0.75407247  1
  Pb  Pb96  1  0.49903663  -0.00565167  0.00261089  1
  Pb  Pb97  1  0.50449573  0.00365354  0.24829541  1
  Pb  Pb98  1  0.49292034  0.00132892  0.50422842  1
  Pb  Pb99  1  0.50003553  -0.00018275  0.75161885  1
  Pb  Pb100  1  0.50297042  0.25607699  -0.00396249  1
  Pb  Pb101  1  0.49332476  0.25518596  0.25770153  1
  Pb  Pb102  1  0.48990466  0.24388249  0.50871568  1
  Pb  Pb103  1  0.48896383  0.25385367  0.74954042  1
  Pb  Pb104  1  0.49980399  0.50118108  0.00234743  1
  Pb  Pb105  1  0.49787254  0.50952561  0.26155870  1
  Pb  Pb106  1  0.49617497  0.50246340  0.49570356  1
  Pb  Pb107  1  0.49801152  0.50177807  0.74033651  1
  Pb  Pb108  1  0.49553312  0.75603989  0.00752241  1
  Pb  Pb109  1  0.49771622  0.74631267  0.24788990  1
  Pb  Pb110  1  0.50229955  0.74207934  0.49761536  1
  Pb  Pb111  1  0.50802784  0.74078298  0.74722822  1
  Pb  Pb112  1  0.75549007  0.00088463  0.00694889  1
  Pb  Pb113  1  0.75105390  0.00079050  0.24128188  1
  Pb  Pb114  1  0.76093646  0.00522510  0.50156317  1
  Pb  Pb115  1  0.75649266  -0.01142673  0.75796555  1
  Pb  Pb116  1  0.74905583  0.24939124  0.00184994  1
  Pb  Pb117  1  0.74853526  0.24900180  0.25251944  1
  Pb  Pb118  1  0.75572481  0.24507412  0.49853860  1
  Pb  Pb119  1  0.75358527  0.25778288  0.75374819  1
  Pb  Pb120  1  0.75128909  0.50229167  0.00189688  1
  Pb  Pb121  1  0.74314688  0.50517516  0.25504488  1
  Pb  Pb122  1  0.75041731  0.50557212  0.49675998  1
  Pb  Pb123  1  0.74760431  0.50660833  0.74812677  1
  Pb  Pb124  1  0.75719660  0.74881260  0.00699263  1
  Pb  Pb125  1  0.75408704  0.75406480  0.24196413  1
  Pb  Pb126  1  0.75559228  0.74042055  0.50307769  1
  Pb  Pb127  1  0.75157392  0.74888883  0.75246851  1
  O  O128  1  0.12760823  0.01189002  0.15468482  1
  O  O129  1  0.12490547  -0.00003860  0.41977865  1
  O  O130  1  0.12214496  -0.00386083  0.66784368  1
  O  O131  1  0.12641909  0.00200634  0.90903432  1
  O  O132  1  0.12757435  0.25127944  0.16839070  1
  O  O133  1  0.12156711  0.24739347  0.42098920  1
  O  O134  1  0.12157502  0.25252230  0.66180202  1
  O  O135  1  0.12376341  0.25784794  0.90720546  1
  O  O136  1  0.12680242  0.49432132  0.16901555  1
  O  O137  1  0.12131740  0.49397535  0.41417458  1
  O  O138  1  0.12046771  0.50570014  0.66068056  1
  O  O139  1  0.12413150  0.49557712  0.91263956  1
  O  O140  1  0.12847127  0.74084051  0.15245572  1
  O  O141  1  0.12511355  0.75696548  0.41076577  1
  O  O142  1  0.12251988  0.74579349  0.66499323  1
  O  O143  1  0.12752257  0.74530492  0.91755796  1
  O  O144  1  0.37308633  0.00878557  0.16314803  1
  O  O145  1  0.36753473  0.00087354  0.42117040  1
  O  O146  1  0.38213779  -0.01172851  0.66693626  1
  O  O147  1  0.37879590  -0.00628470  0.90606035  1
  O  O148  1  0.37327526  0.25102843  0.17109206  1
  O  O149  1  0.37370610  0.23855851  0.42135703  1
  O  O150  1  0.38188434  0.25071900  0.65921493  1
  O  O151  1  0.37858349  0.25355739  0.90636574  1
  O  O152  1  0.37344166  0.49126485  0.16895290  1
  O  O153  1  0.37480513  0.49845148  0.41399036  1
  O  O154  1  0.37964070  0.50288207  0.65478449  1
  O  O155  1  0.37740172  0.50427684  0.91106018  1
  O  O156  1  0.37384663  0.74758165  0.16521468  1
  O  O157  1  0.36593211  0.76042221  0.40780930  1
  O  O158  1  0.37818002  0.75655066  0.66389698  1
  O  O159  1  0.37759610  0.74833861  0.91322515  1
  O  O160  1  0.62208793  0.00885724  0.16091216  1
  O  O161  1  0.62141532  -0.00926962  0.41615233  1
  O  O162  1  0.62739412  -0.00610387  0.66541170  1
  O  O163  1  0.62281915  -0.00232921  0.91746993  1
  O  O164  1  0.62322018  0.24818135  0.16876151  1
  O  O165  1  0.62919237  0.25043007  0.41132756  1
  O  O166  1  0.63038573  0.24720132  0.65691319  1
  O  O167  1  0.62376092  0.25219047  0.91325591  1
  O  O168  1  0.62460577  0.50118686  0.16889211  1
  O  O169  1  0.62797811  0.49321651  0.41288003  1
  O  O170  1  0.62798405  0.49542874  0.65317377  1
  O  O171  1  0.62432689  0.49679025  0.91338663  1
  O  O172  1  0.62336472  0.74138315  0.15984434  1
  O  O173  1  0.62175671  0.76750124  0.41106560  1
  O  O174  1  0.62910401  0.75868849  0.66278859  1
  O  O175  1  0.62294626  0.75442759  0.91884912  1
  O  O176  1  0.87733677  0.00469315  0.15747474  1
  O  O177  1  0.87834772  0.00354304  0.41334750  1
  O  O178  1  0.87000798  -0.00829930  0.66804242  1
  O  O179  1  0.86957690  0.00880093  0.91517059  1
  O  O180  1  0.87642646  0.25440090  0.16770212  1
  O  O181  1  0.87427073  0.24143083  0.41314135  1
  O  O182  1  0.86712037  0.25585250  0.66383245  1
  O  O183  1  0.87093820  0.24844852  0.91448093  1
  O  O184  1  0.87717388  0.49336570  0.16676407  1
  O  O185  1  0.87524316  0.50615935  0.41018411  1
  O  O186  1  0.87017900  0.49512716  0.66199466  1
  O  O187  1  0.87241178  0.50179000  0.91470558  1
  O  O188  1  0.87705736  0.74678157  0.15960073  1
  O  O189  1  0.87947064  0.74827930  0.41108357  1
  O  O190  1  0.87076954  0.75699210  0.66558336  1
  O  O191  1  0.87122068  0.74208091  0.91543088  1
  O  O192  1  0.00902420  0.13251083  0.15801671  1
  O  O193  1  -0.00280265  0.12363888  0.41503578  1
  O  O194  1  -0.00792203  0.12339979  0.66753640  1
  O  O195  1  -0.00663382  0.12881073  0.90901500  1
  O  O196  1  0.00149357  0.37293228  0.16656845  1
  O  O197  1  0.00050115  0.37148303  0.41778443  1
  O  O198  1  -0.00799230  0.37673313  0.65980651  1
  O  O199  1  0.00370357  0.37642721  0.91003742  1
  O  O200  1  0.00758020  0.61668473  0.16023039  1
  O  O201  1  -0.00281733  0.62603188  0.41416730  1
  O  O202  1  0.00147052  0.62641860  0.66542814  1
  O  O203  1  -0.00654700  0.62191283  0.91262697  1
  O  O204  1  0.00561801  0.87569926  0.15668100  1
  O  O205  1  0.00750689  0.87803541  0.41379900  1
  O  O206  1  -0.00826706  0.87334340  0.66179990  1
  O  O207  1  -0.00120783  0.87406217  0.91311862  1
  O  O208  1  0.24738720  0.13114130  0.16459029  1
  O  O209  1  0.24935675  0.12443422  0.42082503  1
  O  O210  1  0.25114412  0.12159633  0.66074738  1
  O  O211  1  0.25327988  0.12708506  0.90571709  1
  O  O212  1  0.25273773  0.37184935  0.17006982  1
  O  O213  1  0.24135812  0.36845830  0.41925676  1
  O  O214  1  0.24983096  0.37791442  0.65376108  1
  O  O215  1  0.24451403  0.37759405  0.90457765  1
  O  O216  1  0.24371723  0.61674211  0.16670817  1
  O  O217  1  0.24554695  0.62504092  0.41661578  1
  O  O218  1  0.24350164  0.62667851  0.65764148  1
  O  O219  1  0.25860407  0.62390529  0.91237989  1
  O  O220  1  0.24849931  0.87733470  0.16471766  1
  O  O221  1  0.24620248  0.88077663  0.41849571  1
  O  O222  1  0.25683417  0.87356459  0.65945674  1
  O  O223  1  0.25941393  0.87207892  0.90992268  1
  O  O224  1  0.49909466  0.12980343  0.16413814  1
  O  O225  1  0.49416851  0.11901974  0.41515297  1
  O  O226  1  0.51515000  0.12029018  0.66651221  1
  O  O227  1  0.50434123  0.12428625  0.91335260  1
  O  O228  1  0.49229631  0.37175238  0.16902535  1
  O  O229  1  0.51040878  0.37076494  0.41423510  1
  O  O230  1  0.51208392  0.37279672  0.65568727  1
  O  O231  1  0.50536430  0.37725255  0.91299405  1
  O  O232  1  0.50471925  0.61949597  0.16642618  1
  O  O233  1  0.49999270  0.63064329  0.41160188  1
  O  O234  1  0.50321725  0.63003803  0.65755598  1
  O  O235  1  0.49545127  0.62520993  0.91570550  1
  O  O236  1  0.49921902  0.87640689  0.16849845  1
  O  O237  1  0.48575962  0.88104368  0.40816763  1
  O  O238  1  0.50589797  0.87353496  0.66145685  1
  O  O239  1  0.49816417  0.87321612  0.91648511  1
  O  O240  1  0.74439875  0.12925176  0.16092732  1
  O  O241  1  0.75501707  0.11934355  0.41190582  1
  O  O242  1  0.74296966  0.12043907  0.67127717  1
  O  O243  1  0.74678045  0.12709324  0.91891269  1
  O  O244  1  0.75404179  0.37322754  0.16279853  1
  O  O245  1  0.74776561  0.37339419  0.41395501  1
  O  O246  1  0.74478941  0.37451227  0.66529646  1
  O  O247  1  0.74367872  0.37466312  0.91364140  1
  O  O248  1  0.74541473  0.62076727  0.16378890  1
  O  O249  1  0.75674143  0.63017619  0.41102566  1
  O  O250  1  0.75063388  0.62663333  0.66558546  1
  O  O251  1  0.75191348  0.62287214  0.91685172  1
  O  O252  1  0.74745943  0.87558145  0.15782317  1
  O  O253  1  0.75192418  0.87950776  0.39632467  1
  O  O254  1  0.74808724  0.87558137  0.66635050  1
  O  O255  1  0.74258633  0.87561867  0.91992771  1
  O  O256  1  0.12928028  0.13601623  0.04487136  1
  O  O257  1  0.12518806  0.12447928  0.30261792  1
  O  O258  1  0.11812247  0.11997092  0.53879560  1
  O  O259  1  0.12257754  0.12494248  0.77858064  1
  O  O260  1  0.12833261  0.37460765  0.04858218  1
  O  O261  1  0.12322444  0.36987087  0.30687921  1
  O  O262  1  0.11576526  0.37260176  0.53078278  1
  O  O263  1  0.12121874  0.38230774  0.79202726  1
  O  O264  1  0.13014820  0.61277772  0.04808761  1
  O  O265  1  0.12675146  0.62087317  0.28424255  1
  O  O266  1  0.11768956  0.62862056  0.54766683  1
  O  O267  1  0.12235707  0.62949191  0.78470187  1
  O  O268  1  0.13141324  0.87982249  0.02652070  1
  O  O269  1  0.12904892  0.87985008  0.30108264  1
  O  O270  1  0.12104410  0.88024607  0.53816914  1
  O  O271  1  0.12622220  0.86315565  0.78613225  1
  O  O272  1  0.37215572  0.13081127  0.04580873  1
  O  O273  1  0.37030698  0.12213220  0.30580068  1
  O  O274  1  0.38880943  0.11920430  0.54325719  1
  O  O275  1  0.38618502  0.12533246  0.77586774  1
  O  O276  1  0.37357326  0.37468139  0.05409824  1
  O  O277  1  0.37338875  0.36118022  0.29843988  1
  O  O278  1  0.38077139  0.36929380  0.52624314  1
  O  O279  1  0.38344374  0.38098868  0.77808565  1
  O  O280  1  0.37153780  0.61443381  0.04122573  1
  O  O281  1  0.37113406  0.62072555  0.28566852  1
  O  O282  1  0.37395756  0.63437462  0.52866687  1
  O  O283  1  0.37972399  0.62627971  0.79744375  1
  O  O284  1  0.37915844  0.87369685  0.03459734  1
  O  O285  1  0.36670986  0.88450286  0.29722299  1
  O  O286  1  0.37627694  0.87390968  0.54741614  1
  O  O287  1  0.38061842  0.86946821  0.79804166  1
  O  O288  1  0.62174557  0.13266792  0.05078193  1
  O  O289  1  0.62609419  0.11957294  0.28633258  1
  O  O290  1  0.63131321  0.12068128  0.54880032  1
  O  O291  1  0.62650867  0.12292644  0.79781484  1
  O  O292  1  0.61598143  0.37374430  0.03894491  1
  O  O293  1  0.62699603  0.37202066  0.29729121  1
  O  O294  1  0.63254780  0.37304017  0.54230686  1
  O  O295  1  0.62480597  0.37689051  0.79919013  1
  O  O296  1  0.62312011  0.61683549  0.04945110  1
  O  O297  1  0.62611701  0.61928432  0.28983624  1
  O  O298  1  0.63236718  0.63498669  0.52821915  1
  O  O299  1  0.62447570  0.62916282  0.78728470  1
  O  O300  1  0.61075543  0.87685691  0.03312168  1
  O  O301  1  0.62368847  0.88181939  0.29218107  1
  O  O302  1  0.62866831  0.87680767  0.54731795  1
  O  O303  1  0.62512023  0.87340863  0.80706343  1
  O  O304  1  0.87290704  0.13535470  0.03226305  1
  O  O305  1  0.87801525  0.12266848  0.29781822  1
  O  O306  1  0.86213190  0.11999682  0.53975673  1
  O  O307  1  0.86728471  0.12716295  0.80122180  1
  O  O308  1  0.87681100  0.37427758  0.05317690  1
  O  O309  1  0.87848764  0.36990625  0.28538299  1
  O  O310  1  0.87088102  0.37425698  0.54981927  1
  O  O311  1  0.86672864  0.37417564  0.78352006  1
  O  O312  1  0.87170946  0.61603427  0.03503628  1
  O  O313  1  0.87925613  0.62751909  0.29673939  1
  O  O314  1  0.87163216  0.63419178  0.53553209  1
  O  O315  1  0.87104709  0.62340854  0.80014599  1
  O  O316  1  0.87100823  0.87546386  0.02796975  1
  O  O317  1  0.88842757  0.87472933  0.28072944  1
  O  O318  1  0.87201237  0.87529224  0.54912900  1
  O  O319  1  0.86395110  0.87578189  0.79481090  1
