# generated using pymatgen
data_VFe(PbO3)2
_symmetry_space_group_name_H-M   'P 1'
_cell_length_a   15.37540755
_cell_length_b   15.38481407
_cell_length_c   18.52902650
_cell_angle_alpha   89.95613381
_cell_angle_beta   90.02543120
_cell_angle_gamma   90.01824082
_symmetry_Int_Tables_number   1
_chemical_formula_structural   VFe(PbO3)2
_chemical_formula_sum   'V32 Fe32 Pb64 O192'
_cell_volume   4382.99826425
_cell_formula_units_Z   32
loop_
 _symmetry_equiv_pos_site_id
 _symmetry_equiv_pos_as_xyz
  1  'x, y, z'
loop_
 _atom_site_type_symbol
 _atom_site_label
 _atom_site_symmetry_multiplicity
 _atom_site_fract_x
 _atom_site_fract_y
 _atom_site_fract_z
 _atom_site_occupancy
  V  V0  1  0.87685591  0.12438062  0.39100913  1
  V  V1  1  0.12426805  0.87168867  0.13812999  1
  V  V2  1  0.87740597  0.62679804  0.14079864  1
  V  V3  1  0.13020819  0.37360090  0.64006647  1
  V  V4  1  0.37422878  0.12193543  0.38873849  1
  V  V5  1  0.62360558  0.12513741  0.39111041  1
  V  V6  1  0.62154690  0.62458905  0.39648664  1
  V  V7  1  0.62586691  0.37469219  0.63793192  1
  V  V8  1  0.87872392  0.37529926  0.63795286  1
  V  V9  1  0.37590747  0.12707834  0.63915569  1
  V  V10  1  0.12518142  0.37958100  0.13893530  1
  V  V11  1  0.87428638  0.37230713  0.89080258  1
  V  V12  1  0.12523185  0.62533063  0.64934574  1
  V  V13  1  0.12359541  0.12506096  0.89030150  1
  V  V14  1  0.87547879  0.62273963  0.64276839  1
  V  V15  1  0.62559213  0.87554369  0.39500370  1
  V  V16  1  0.38397238  0.37266747  0.88994717  1
  V  V17  1  0.62690116  0.61748673  0.88434585  1
  V  V18  1  0.62345263  0.87299477  0.88617264  1
  V  V19  1  0.37549607  0.37359542  0.39319426  1
  V  V20  1  0.12669695  0.12492472  0.39254079  1
  V  V21  1  0.62438200  0.37670770  0.14183603  1
  V  V22  1  0.62852190  0.62702810  0.14114163  1
  V  V23  1  0.87386710  0.62572015  0.39302702  1
  V  V24  1  0.37464552  0.87131294  0.64020589  1
  V  V25  1  0.12422727  0.37535647  0.38852005  1
  V  V26  1  0.12330429  0.62540055  0.13684129  1
  V  V27  1  0.37610537  0.87240196  0.13591036  1
  V  V28  1  0.37552640  0.87552510  0.39437335  1
  V  V29  1  0.62517808  0.12716889  0.89013306  1
  V  V30  1  0.12442926  0.62547596  0.39291224  1
  V  V31  1  0.13289957  0.37360348  0.88793334  1
  Fe  Fe32  1  0.37722170  0.62368400  0.88175422  1
  Fe  Fe33  1  0.37243777  0.62807537  0.39698457  1
  Fe  Fe34  1  0.87518290  0.37939391  0.14164931  1
  Fe  Fe35  1  0.62704392  0.62481496  0.63140744  1
  Fe  Fe36  1  0.87394994  0.12833432  0.63221041  1
  Fe  Fe37  1  0.12381757  0.12428821  0.13239994  1
  Fe  Fe38  1  0.87513443  0.87297673  0.13391669  1
  Fe  Fe39  1  0.87539266  0.87564362  0.63137161  1
  Fe  Fe40  1  0.62469994  0.87479268  0.63316912  1
  Fe  Fe41  1  0.37285520  0.12626684  0.13241534  1
  Fe  Fe42  1  0.87606453  0.37556845  0.38453420  1
  Fe  Fe43  1  0.62683226  0.37473351  0.38459489  1
  Fe  Fe44  1  0.37533907  0.12645668  0.89284874  1
  Fe  Fe45  1  0.87176763  0.62389525  0.87937614  1
  Fe  Fe46  1  0.87608441  0.87352865  0.39781273  1
  Fe  Fe47  1  0.62735435  0.37242250  0.88243381  1
  Fe  Fe48  1  0.62473171  0.12399924  0.63127877  1
  Fe  Fe49  1  0.87430283  0.87588641  0.87992268  1
  Fe  Fe50  1  0.12559284  0.87424061  0.87407693  1
  Fe  Fe51  1  0.62459742  0.87081763  0.13314602  1
  Fe  Fe52  1  0.12728283  0.87525738  0.39053191  1
  Fe  Fe53  1  0.37389451  0.62527990  0.13612964  1
  Fe  Fe54  1  0.87508675  0.12482473  0.13296510  1
  Fe  Fe55  1  0.87442448  0.12584871  0.88734214  1
  Fe  Fe56  1  0.62471796  0.12176934  0.13460323  1
  Fe  Fe57  1  0.37366194  0.37983807  0.13480407  1
  Fe  Fe58  1  0.37480533  0.87721274  0.88072679  1
  Fe  Fe59  1  0.37436469  0.62065502  0.63177548  1
  Fe  Fe60  1  0.12598266  0.87865853  0.64559666  1
  Fe  Fe61  1  0.12365829  0.62087131  0.87513522  1
  Fe  Fe62  1  0.37584598  0.37321445  0.63145908  1
  Fe  Fe63  1  0.12541357  0.12918913  0.63356445  1
  Pb  Pb64  1  -0.01201871  -0.00651881  -0.00432705  1
  Pb  Pb65  1  -0.00461172  -0.00097157  0.24740554  1
  Pb  Pb66  1  -0.00032989  -0.00717060  0.50569780  1
  Pb  Pb67  1  -0.00675146  0.00172022  0.74099483  1
  Pb  Pb68  1  -0.00307708  0.24436859  0.00560246  1
  Pb  Pb69  1  -0.00480978  0.24992586  0.24586288  1
  Pb  Pb70  1  -0.00033296  0.24056598  0.50132005  1
  Pb  Pb71  1  -0.00506542  0.24099028  0.75108865  1
  Pb  Pb72  1  -0.00507898  0.49673990  -0.00491728  1
  Pb  Pb73  1  -0.00464088  0.49910365  0.25281377  1
  Pb  Pb74  1  0.00299738  0.49991701  0.50242868  1
  Pb  Pb75  1  -0.00000809  0.50454500  0.75586138  1
  Pb  Pb76  1  -0.00168409  0.75023481  -0.01689575  1
  Pb  Pb77  1  -0.00005681  0.76512393  0.25960342  1
  Pb  Pb78  1  0.00296129  0.76144068  0.50927211  1
  Pb  Pb79  1  -0.00419181  0.76116454  0.75271060  1
  Pb  Pb80  1  0.25241836  -0.00026323  -0.00707720  1
  Pb  Pb81  1  0.24499812  -0.00331764  0.24590074  1
  Pb  Pb82  1  0.24014498  -0.00130333  0.50694462  1
  Pb  Pb83  1  0.25155905  -0.00098450  0.75120717  1
  Pb  Pb84  1  0.25020334  0.24466041  0.00698585  1
  Pb  Pb85  1  0.25102409  0.24910060  0.24388174  1
  Pb  Pb86  1  0.24796931  0.24860451  0.50138074  1
  Pb  Pb87  1  0.26109478  0.24032943  0.75541321  1
  Pb  Pb88  1  0.25905041  0.50413477  -0.00202382  1
  Pb  Pb89  1  0.25701134  0.50906586  0.25200388  1
  Pb  Pb90  1  0.25695266  0.49932835  0.50471204  1
  Pb  Pb91  1  0.25503909  0.50584059  0.75151049  1
  Pb  Pb92  1  0.24939986  0.74552195  -0.01690741  1
  Pb  Pb93  1  0.24556757  0.75115289  0.25198800  1
  Pb  Pb94  1  0.24519698  0.75591338  0.50769217  1
  Pb  Pb95  1  0.25285458  0.75792590  0.75519998  1
  Pb  Pb96  1  0.50756388  0.00067307  -0.00004145  1
  Pb  Pb97  1  0.50224802  0.00101750  0.24397919  1
  Pb  Pb98  1  0.50853201  0.00053531  0.50471979  1
  Pb  Pb99  1  0.49478174  0.00059868  0.74897900  1
  Pb  Pb100  1  0.50124957  0.24222365  0.00542440  1
  Pb  Pb101  1  0.49979559  0.25179562  0.24522023  1
  Pb  Pb102  1  0.50150412  0.24911218  0.49880325  1
  Pb  Pb103  1  0.50465608  0.25141072  0.75000352  1
  Pb  Pb104  1  0.49045589  0.50122243  0.00427392  1
  Pb  Pb105  1  0.49792466  0.50306868  0.25328590  1
  Pb  Pb106  1  0.49105950  0.49986760  0.50467488  1
  Pb  Pb107  1  0.49600995  0.50313469  0.74385718  1
  Pb  Pb108  1  0.49944505  0.75020952  -0.00631836  1
  Pb  Pb109  1  0.49247860  0.74096862  0.25303240  1
  Pb  Pb110  1  0.50772048  0.74958700  0.50805389  1
  Pb  Pb111  1  0.49889189  0.74185412  0.74371222  1
  Pb  Pb112  1  0.75120129  -0.00142083  -0.00107703  1
  Pb  Pb113  1  0.75254079  -0.00290093  0.24315416  1
  Pb  Pb114  1  0.75372914  0.00398265  0.50361137  1
  Pb  Pb115  1  0.75487233  0.00073521  0.73955507  1
  Pb  Pb116  1  0.75237841  0.24251205  0.00428334  1
  Pb  Pb117  1  0.75158923  0.25258176  0.24704892  1
  Pb  Pb118  1  0.75259451  0.24362585  0.49864162  1
  Pb  Pb119  1  0.74910878  0.24649232  0.74811136  1
  Pb  Pb120  1  0.75496979  0.49145503  0.00186570  1
  Pb  Pb121  1  0.74691636  0.49399978  0.25724867  1
  Pb  Pb122  1  0.74674596  0.49819843  0.49992004  1
  Pb  Pb123  1  0.74890935  0.49704648  0.74999511  1
  Pb  Pb124  1  0.75202656  0.75865104  -0.00425169  1
  Pb  Pb125  1  0.75559037  0.75862469  0.25328905  1
  Pb  Pb126  1  0.74485250  0.75321252  0.50688917  1
  Pb  Pb127  1  0.75576389  0.75404319  0.74524162  1
  O  O128  1  0.12584576  -0.00950624  0.16003452  1
  O  O129  1  0.12721334  0.00440052  0.41659455  1
  O  O130  1  0.12816399  0.00608750  0.66254672  1
  O  O131  1  0.12716266  0.00931901  0.90185401  1
  O  O132  1  0.12501744  0.26084593  0.16086564  1
  O  O133  1  0.12747550  0.25129232  0.41580797  1
  O  O134  1  0.12248971  0.25879252  0.66544923  1
  O  O135  1  0.12241450  0.25973492  0.91920289  1
  O  O136  1  0.12307876  0.50247672  0.16702065  1
  O  O137  1  0.12489835  0.50121622  0.41676157  1
  O  O138  1  0.12039330  0.48953608  0.66807751  1
  O  O139  1  0.12093206  0.48868307  0.91086883  1
  O  O140  1  0.12600172  0.75053541  0.16583830  1
  O  O141  1  0.12592068  0.74247557  0.41849995  1
  O  O142  1  0.12628986  0.74013953  0.66195797  1
  O  O143  1  0.12558513  0.74703521  0.90093815  1
  O  O144  1  0.37067738  -0.00971346  0.16099960  1
  O  O145  1  0.37500912  -0.00219114  0.41823176  1
  O  O146  1  0.37412322  0.00512858  0.66170257  1
  O  O147  1  0.37428398  0.00116823  0.91476706  1
  O  O148  1  0.37303739  0.25427290  0.16392427  1
  O  O149  1  0.37460468  0.25037900  0.41368113  1
  O  O150  1  0.37710745  0.24739673  0.66363408  1
  O  O151  1  0.37411294  0.25878140  0.91686704  1
  O  O152  1  0.37542562  0.50226260  0.17144237  1
  O  O153  1  0.37400363  0.49385309  0.41466170  1
  O  O154  1  0.37565321  0.49564836  0.66232919  1
  O  O155  1  0.37754513  0.49297247  0.91232645  1
  O  O156  1  0.37198245  0.75382789  0.16433744  1
  O  O157  1  0.37428873  0.75859796  0.41888309  1
  O  O158  1  0.37197766  0.75194759  0.65557354  1
  O  O159  1  0.37822302  0.74985009  0.90833663  1
  O  O160  1  0.62215736  -0.00461893  0.16552844  1
  O  O161  1  0.62346174  0.00070182  0.41767821  1
  O  O162  1  0.62077042  -0.00032309  0.66268438  1
  O  O163  1  0.62319823  0.00173912  0.91035778  1
  O  O164  1  0.62407225  0.25827485  0.16127326  1
  O  O165  1  0.62382572  0.24659522  0.41227471  1
  O  O166  1  0.62626699  0.25508157  0.66079602  1
  O  O167  1  0.62543778  0.24542552  0.91457188  1
  O  O168  1  0.62573488  0.50519142  0.16732146  1
  O  O169  1  0.62642897  0.50593422  0.41415430  1
  O  O170  1  0.62903866  0.49388574  0.65981069  1
  O  O171  1  0.62726437  0.50306732  0.90540470  1
  O  O172  1  0.62413896  0.74296099  0.16669346  1
  O  O173  1  0.62554120  0.74748790  0.41923462  1
  O  O174  1  0.62326762  0.74916781  0.66282630  1
  O  O175  1  0.62399636  0.75336518  0.90711952  1
  O  O176  1  0.87805728  -0.00239347  0.16456012  1
  O  O177  1  0.87623300  0.00677469  0.41538740  1
  O  O178  1  0.87628324  0.00180587  0.65513324  1
  O  O179  1  0.87377257  0.00070388  0.91134674  1
  O  O180  1  0.87574847  0.25291859  0.16440043  1
  O  O181  1  0.87522738  0.24499349  0.41068007  1
  O  O182  1  0.87247289  0.25944991  0.66195965  1
  O  O183  1  0.87280113  0.25507455  0.91552691  1
  O  O184  1  0.87338529  0.51030679  0.16964772  1
  O  O185  1  0.87806076  0.50808957  0.41757091  1
  O  O186  1  0.87416205  0.49413403  0.66647998  1
  O  O187  1  0.86967041  0.49484660  0.91317182  1
  O  O188  1  0.87468551  0.74274999  0.16687482  1
  O  O189  1  0.87838848  0.73922249  0.42121903  1
  O  O190  1  0.87801345  0.73983047  0.65704703  1
  O  O191  1  0.87086820  0.74959510  0.90877881  1
  O  O192  1  0.00224197  0.12528585  0.16725807  1
  O  O193  1  -0.00146996  0.12693517  0.41356835  1
  O  O194  1  -0.00024923  0.13195459  0.66209266  1
  O  O195  1  0.00669939  0.13327298  0.91233407  1
  O  O196  1  0.00658056  0.38169278  0.16625562  1
  O  O197  1  0.00386930  0.37541708  0.41416196  1
  O  O198  1  -0.00568897  0.37515444  0.66293525  1
  O  O199  1  -0.00652126  0.37522234  0.91228447  1
  O  O200  1  -0.00398993  0.62521141  0.16373385  1
  O  O201  1  0.00397612  0.62273730  0.41792397  1
  O  O202  1  -0.00169851  0.61623568  0.66745387  1
  O  O203  1  -0.00195878  0.61927471  0.90621395  1
  O  O204  1  0.00619995  0.86975820  0.16260646  1
  O  O205  1  0.00378502  0.87407041  0.42020120  1
  O  O206  1  -0.00045927  0.87024554  0.66098397  1
  O  O207  1  0.00264062  0.87698348  0.90573284  1
  O  O208  1  0.24778438  0.12411029  0.16594480  1
  O  O209  1  0.25319931  0.12618696  0.41780605  1
  O  O210  1  0.25668589  0.13020385  0.66440948  1
  O  O211  1  0.24220909  0.13540616  0.91513201  1
  O  O212  1  0.24254339  0.38195025  0.16469943  1
  O  O213  1  0.25127586  0.37431528  0.41580526  1
  O  O214  1  0.24542849  0.37457847  0.65767230  1
  O  O215  1  0.24947298  0.37585847  0.90747986  1
  O  O216  1  0.24446285  0.62556161  0.16499572  1
  O  O217  1  0.24191356  0.62285769  0.41768058  1
  O  O218  1  0.24420286  0.61480303  0.66041199  1
  O  O219  1  0.24972628  0.61779857  0.90567527  1
  O  O220  1  0.24877653  0.87111813  0.16350577  1
  O  O221  1  0.25529862  0.87620840  0.42050929  1
  O  O222  1  0.25765067  0.87634897  0.66490943  1
  O  O223  1  0.24779391  0.87666669  0.91025605  1
  O  O224  1  0.49771565  0.12485512  0.16566654  1
  O  O225  1  0.49669271  0.12458927  0.41650037  1
  O  O226  1  0.49459937  0.12708742  0.66256871  1
  O  O227  1  0.50567322  0.12734390  0.91551033  1
  O  O228  1  0.50566847  0.38074276  0.16416921  1
  O  O229  1  0.49542456  0.37424751  0.41269360  1
  O  O230  1  0.50719924  0.37349838  0.65806005  1
  O  O231  1  0.49897063  0.37416247  0.91130838  1
  O  O232  1  0.50622688  0.62526741  0.16658992  1
  O  O233  1  0.50473275  0.62652469  0.41519977  1
  O  O234  1  0.50043500  0.62234414  0.65794484  1
  O  O235  1  0.51009725  0.62512212  0.91156321  1
  O  O236  1  0.49167514  0.87096355  0.16067511  1
  O  O237  1  0.49588637  0.87564670  0.41852860  1
  O  O238  1  0.49121938  0.87670612  0.66286397  1
  O  O239  1  0.50585378  0.87723473  0.91103657  1
  O  O240  1  0.74902152  0.12551895  0.16566692  1
  O  O241  1  0.75264785  0.12398531  0.41169798  1
  O  O242  1  0.74853933  0.12812978  0.66159598  1
  O  O243  1  0.74333179  0.12543777  0.91282144  1
  O  O244  1  0.74360396  0.38103076  0.16615918  1
  O  O245  1  0.75189821  0.37770124  0.41483978  1
  O  O246  1  0.75156364  0.37521927  0.66130466  1
  O  O247  1  0.75327625  0.37353847  0.91717200  1
  O  O248  1  0.74879548  0.62625078  0.16619501  1
  O  O249  1  0.75356792  0.62575697  0.41474825  1
  O  O250  1  0.75671448  0.61988469  0.66008783  1
  O  O251  1  0.74091267  0.62756320  0.91258137  1
  O  O252  1  0.75001134  0.86994584  0.16558729  1
  O  O253  1  0.74632481  0.87391490  0.41635191  1
  O  O254  1  0.75105415  0.87162541  0.65682847  1
  O  O255  1  0.74162945  0.87759308  0.90959600  1
  O  O256  1  0.12361089  0.13262650  0.03335159  1
  O  O257  1  0.12721467  0.12582002  0.30157716  1
  O  O258  1  0.12774597  0.13320395  0.53314223  1
  O  O259  1  0.12646924  0.13921875  0.79936153  1
  O  O260  1  0.12379054  0.38220576  0.04820116  1
  O  O261  1  0.12642513  0.37723967  0.29795432  1
  O  O262  1  0.12338026  0.37487415  0.54864715  1
  O  O263  1  0.12759626  0.36928384  0.79731388  1
  O  O264  1  0.12267127  0.62487752  0.04634868  1
  O  O265  1  0.12352581  0.62680349  0.30197155  1
  O  O266  1  0.11869814  0.61745178  0.55781366  1
  O  O267  1  0.12575676  0.61290023  0.77391562  1
  O  O268  1  0.12575213  0.86995895  0.04798871  1
  O  O269  1  0.12685934  0.86782423  0.29055008  1
  O  O270  1  0.13277574  0.87174496  0.54217265  1
  O  O271  1  0.13177230  0.87072754  0.77220104  1
  O  O272  1  0.37174567  0.13228837  0.03183072  1
  O  O273  1  0.37313133  0.12141285  0.29809273  1
  O  O274  1  0.37466526  0.12779915  0.54824160  1
  O  O275  1  0.37273342  0.13339253  0.79232076  1
  O  O276  1  0.37615415  0.38771250  0.03547272  1
  O  O277  1  0.37274396  0.37421265  0.30203039  1
  O  O278  1  0.37657416  0.37623280  0.53182901  1
  O  O279  1  0.38108413  0.37060651  0.79828610  1
  O  O280  1  0.37774250  0.61523003  0.03627570  1
  O  O281  1  0.37602960  0.62804214  0.29632488  1
  O  O282  1  0.37334614  0.61417950  0.52932173  1
  O  O283  1  0.37997987  0.61721715  0.78161774  1
  O  O284  1  0.37390638  0.87162213  0.04523723  1
  O  O285  1  0.37405158  0.87622128  0.30351643  1
  O  O286  1  0.37220470  0.87762567  0.54910694  1
  O  O287  1  0.37040203  0.87836028  0.78041133  1
  O  O288  1  0.62160796  0.12442922  0.03483113  1
  O  O289  1  0.62052731  0.12124787  0.30014203  1
  O  O290  1  0.62461147  0.12453563  0.53098292  1
  O  O291  1  0.62242748  0.12880137  0.79888161  1
  O  O292  1  0.62652619  0.37985969  0.05074330  1
  O  O293  1  0.62741538  0.37907698  0.28543765  1
  O  O294  1  0.62801312  0.37480467  0.54648889  1
  O  O295  1  0.62810224  0.36974092  0.78369198  1
  O  O296  1  0.62810432  0.62556584  0.05067050  1
  O  O297  1  0.62481857  0.62984277  0.30530606  1
  O  O298  1  0.63027701  0.62909607  0.53130194  1
  O  O299  1  0.62684039  0.62258417  0.79277046  1
  O  O300  1  0.62412698  0.87259111  0.03380694  1
  O  O301  1  0.61951157  0.87229767  0.30411788  1
  O  O302  1  0.61796732  0.87097590  0.53195928  1
  O  O303  1  0.62242392  0.87544116  0.79547677  1
  O  O304  1  0.87544814  0.12760217  0.03170227  1
  O  O305  1  0.87894471  0.12281733  0.29991016  1
  O  O306  1  0.87169504  0.13279688  0.53136412  1
  O  O307  1  0.87689120  0.13144029  0.78716307  1
  O  O308  1  0.87320705  0.38699494  0.04203941  1
  O  O309  1  0.87571545  0.38326037  0.28417680  1
  O  O310  1  0.87811559  0.37804366  0.54678516  1
  O  O311  1  0.87123044  0.37261506  0.79959075  1
  O  O312  1  0.87384710  0.62541140  0.05011248  1
  O  O313  1  0.87625549  0.62732765  0.30210097  1
  O  O314  1  0.88068595  0.61508576  0.55198360  1
  O  O315  1  0.86892926  0.61897238  0.78000457  1
  O  O316  1  0.87536619  0.87566877  0.03402837  1
  O  O317  1  0.87999030  0.86502221  0.29626734  1
  O  O318  1  0.88066899  0.87517892  0.52840525  1
  O  O319  1  0.87343050  0.86923117  0.77902116  1
