# generated using pymatgen
data_VFe(PbO3)2
_symmetry_space_group_name_H-M   'P 1'
_cell_length_a   15.40993510
_cell_length_b   15.39384287
_cell_length_c   18.48221700
_cell_angle_alpha   89.99171682
_cell_angle_beta   90.00546341
_cell_angle_gamma   90.01782365
_symmetry_Int_Tables_number   1
_chemical_formula_structural   VFe(PbO3)2
_chemical_formula_sum   'V32 Fe32 Pb64 O192'
_cell_volume   4384.31648307
_cell_formula_units_Z   32
loop_
 _symmetry_equiv_pos_site_id
 _symmetry_equiv_pos_as_xyz
  1  'x, y, z'
loop_
 _atom_site_type_symbol
 _atom_site_label
 _atom_site_symmetry_multiplicity
 _atom_site_fract_x
 _atom_site_fract_y
 _atom_site_fract_z
 _atom_site_occupancy
  V  V0  1  0.37712832  0.37397379  0.39219064  1
  V  V1  1  0.87687546  0.12860904  0.39329443  1
  V  V2  1  0.12617440  0.62130489  0.14252381  1
  V  V3  1  0.62381649  0.12236170  0.13527076  1
  V  V4  1  0.12398697  0.12212877  0.88063764  1
  V  V5  1  0.62840668  0.12699005  0.39219873  1
  V  V6  1  0.87291323  0.13653926  0.63875513  1
  V  V7  1  0.62489555  0.12542988  0.65600548  1
  V  V8  1  0.37266692  0.12412404  0.13981497  1
  V  V9  1  0.62857769  0.86652533  0.38527934  1
  V  V10  1  0.62493200  0.87431831  0.89067360  1
  V  V11  1  0.12743820  0.87564382  0.14614279  1
  V  V12  1  0.87725929  0.12274537  0.88819160  1
  V  V13  1  0.62725032  0.37870852  0.64888532  1
  V  V14  1  0.87332371  0.87123666  0.63855253  1
  V  V15  1  0.62621974  0.37281080  0.38503952  1
  V  V16  1  0.87349127  0.37332904  0.38743300  1
  V  V17  1  0.37128998  0.37573423  0.13564248  1
  V  V18  1  0.62323026  0.62577680  0.64230491  1
  V  V19  1  0.87234374  0.62412521  0.38428421  1
  V  V20  1  0.38303483  0.62415682  0.63863032  1
  V  V21  1  0.10702335  0.62588380  0.63244611  1
  V  V22  1  0.37787936  0.37838901  0.64527528  1
  V  V23  1  0.12732259  0.12266469  0.14113831  1
  V  V24  1  0.62064808  0.87773001  0.13755108  1
  V  V25  1  0.12427962  0.37589797  0.39083070  1
  V  V26  1  0.37485881  0.62657190  0.89239410  1
  V  V27  1  0.12981212  0.12746784  0.40579129  1
  V  V28  1  0.62998307  0.62693565  0.90621530  1
  V  V29  1  0.62710864  0.87262451  0.63989338  1
  V  V30  1  0.12805998  0.63048495  0.88704517  1
  V  V31  1  0.12648505  0.87437941  0.88618854  1
  Fe  Fe32  1  0.37232131  0.62733456  0.14045702  1
  Fe  Fe33  1  0.87831616  0.62597227  0.12669899  1
  Fe  Fe34  1  0.87885519  0.62802385  0.89966282  1
  Fe  Fe35  1  0.12198336  0.12386182  0.62924315  1
  Fe  Fe36  1  0.87631418  0.87873618  0.14123906  1
  Fe  Fe37  1  0.62278467  0.62438804  0.12562256  1
  Fe  Fe38  1  0.12456570  0.37858940  0.64781272  1
  Fe  Fe39  1  0.87773012  0.87459655  0.89139703  1
  Fe  Fe40  1  0.37400920  0.87901130  0.14365608  1
  Fe  Fe41  1  0.12320651  0.87014690  0.62569657  1
  Fe  Fe42  1  0.13085853  0.36912756  0.13433393  1
  Fe  Fe43  1  0.37292739  0.37393887  0.88106101  1
  Fe  Fe44  1  0.62050793  0.36890785  0.12242097  1
  Fe  Fe45  1  0.87945903  0.12300400  0.13110566  1
  Fe  Fe46  1  0.11999720  0.87562657  0.39335973  1
  Fe  Fe47  1  0.37347057  0.87239996  0.88314430  1
  Fe  Fe48  1  0.12337548  0.62051073  0.38197615  1
  Fe  Fe49  1  0.87902000  0.37453046  0.88835640  1
  Fe  Fe50  1  0.12722302  0.37845739  0.87528869  1
  Fe  Fe51  1  0.62213564  0.37351702  0.89915668  1
  Fe  Fe52  1  0.37946809  0.87117080  0.62937943  1
  Fe  Fe53  1  0.37035473  0.12109298  0.87421292  1
  Fe  Fe54  1  0.37733222  0.12602880  0.63446493  1
  Fe  Fe55  1  0.37721380  0.87774618  0.38951118  1
  Fe  Fe56  1  0.37768235  0.13066159  0.40171613  1
  Fe  Fe57  1  0.87090707  0.38251421  0.64430579  1
  Fe  Fe58  1  0.86889668  0.87827505  0.38235732  1
  Fe  Fe59  1  0.62347412  0.11788527  0.87678260  1
  Fe  Fe60  1  0.62596186  0.61749594  0.37805441  1
  Fe  Fe61  1  0.37633196  0.62150479  0.38008356  1
  Fe  Fe62  1  0.87964114  0.37222403  0.12669707  1
  Fe  Fe63  1  0.86318752  0.62616570  0.63824187  1
  Pb  Pb64  1  -0.00376012  0.00017602  0.00332141  1
  Pb  Pb65  1  0.00148364  -0.00570343  0.25719172  1
  Pb  Pb66  1  0.00222708  -0.00337340  0.50363516  1
  Pb  Pb67  1  0.00098155  -0.00611093  0.74243941  1
  Pb  Pb68  1  0.00535659  0.25817816  -0.00361634  1
  Pb  Pb69  1  -0.00038147  0.25213266  0.24419829  1
  Pb  Pb70  1  0.00621635  0.26028001  0.51208815  1
  Pb  Pb71  1  0.00246344  0.26100010  0.74878831  1
  Pb  Pb72  1  -0.00183405  0.49513984  -0.00352216  1
  Pb  Pb73  1  -0.00040418  0.49965494  0.24186267  1
  Pb  Pb74  1  -0.00960679  0.49292365  0.50254783  1
  Pb  Pb75  1  -0.01004158  0.49436879  0.75692826  1
  Pb  Pb76  1  -0.00148098  0.75110864  0.00416998  1
  Pb  Pb77  1  0.00635737  0.75313091  0.25252944  1
  Pb  Pb78  1  0.00035660  0.75147582  0.49232958  1
  Pb  Pb79  1  -0.01764850  0.75006120  0.75882228  1
  Pb  Pb80  1  0.25636964  -0.00677753  -0.00311808  1
  Pb  Pb81  1  0.25128812  -0.00619116  0.26372039  1
  Pb  Pb82  1  0.25791436  -0.01211627  0.50384249  1
  Pb  Pb83  1  0.25386342  -0.00209758  0.73417950  1
  Pb  Pb84  1  0.24729291  0.25360085  -0.01057256  1
  Pb  Pb85  1  0.25674691  0.24209759  0.25652074  1
  Pb  Pb86  1  0.24057764  0.25679825  0.51257540  1
  Pb  Pb87  1  0.25220481  0.24141732  0.74315640  1
  Pb  Pb88  1  0.24474548  0.49623274  -0.00336298  1
  Pb  Pb89  1  0.25090179  0.50763537  0.25296872  1
  Pb  Pb90  1  0.24300468  0.50050127  0.49992092  1
  Pb  Pb91  1  0.25379802  0.49896720  0.75111994  1
  Pb  Pb92  1  0.26051121  0.75035911  0.00754231  1
  Pb  Pb93  1  0.25597631  0.75297919  0.25773887  1
  Pb  Pb94  1  0.24837255  0.75037771  0.48778674  1
  Pb  Pb95  1  0.25552668  0.75694743  0.74104422  1
  Pb  Pb96  1  0.49261727  -0.00318293  -0.00864633  1
  Pb  Pb97  1  0.48880545  0.00278939  0.25804835  1
  Pb  Pb98  1  0.49301833  0.00201714  0.50592037  1
  Pb  Pb99  1  0.48631318  0.00136606  0.74945184  1
  Pb  Pb100  1  0.49812706  0.24480676  -0.01516088  1
  Pb  Pb101  1  0.49360024  0.24477872  0.24869492  1
  Pb  Pb102  1  0.49875785  0.24747278  0.50855499  1
  Pb  Pb103  1  0.49797501  0.25653170  0.75934406  1
  Pb  Pb104  1  0.49746006  0.50247563  0.00314126  1
  Pb  Pb105  1  0.50710099  0.50799859  0.24203138  1
  Pb  Pb106  1  0.50387422  0.50272187  0.49552933  1
  Pb  Pb107  1  0.50457481  0.49296432  0.76290694  1
  Pb  Pb108  1  0.49425351  0.74613053  0.00743094  1
  Pb  Pb109  1  0.49754688  0.74374710  0.24690281  1
  Pb  Pb110  1  0.49424033  0.74899104  0.49273465  1
  Pb  Pb111  1  0.49957190  0.75640662  0.75415104  1
  Pb  Pb112  1  0.76254783  0.00033922  0.00275543  1
  Pb  Pb113  1  0.75477284  -0.00101518  0.24842279  1
  Pb  Pb114  1  0.74691182  0.00536845  0.50315640  1
  Pb  Pb115  1  0.74943713  -0.00277642  0.75320067  1
  Pb  Pb116  1  0.74987108  0.25096704  -0.00600031  1
  Pb  Pb117  1  0.75109167  0.25469577  0.23608295  1
  Pb  Pb118  1  0.75262983  0.25990481  0.50470935  1
  Pb  Pb119  1  0.73264636  0.26095219  0.76967193  1
  Pb  Pb120  1  0.75736715  0.48817824  0.00077231  1
  Pb  Pb121  1  0.74548268  0.50050039  0.22865337  1
  Pb  Pb122  1  0.75780426  0.49947349  0.50253869  1
  Pb  Pb123  1  0.75798282  0.50172717  0.76408778  1
  Pb  Pb124  1  0.76006919  0.75462920  0.00713686  1
  Pb  Pb125  1  0.75407150  0.74640805  0.23797898  1
  Pb  Pb126  1  0.75505920  0.73982463  0.49803058  1
  Pb  Pb127  1  0.75686346  0.74874381  0.76229671  1
  O  O128  1  0.12790078  0.00324020  0.17030466  1
  O  O129  1  0.11941630  0.01010658  0.42011149  1
  O  O130  1  0.11893422  -0.00405948  0.65298169  1
  O  O131  1  0.12529059  -0.00660149  0.90790978  1
  O  O132  1  0.13031254  0.24010123  0.16612527  1
  O  O133  1  0.12066693  0.25354475  0.42392420  1
  O  O134  1  0.12009409  0.24803445  0.66316934  1
  O  O135  1  0.12445728  0.23984913  0.89812310  1
  O  O136  1  0.12825452  0.50308199  0.15861801  1
  O  O137  1  0.12238767  0.49518316  0.41701726  1
  O  O138  1  0.13114609  0.51832302  0.66527375  1
  O  O139  1  0.12957325  0.50998814  0.90564112  1
  O  O140  1  0.12619526  0.75525977  0.16618684  1
  O  O141  1  0.11913582  0.74528517  0.40977243  1
  O  O142  1  0.13053438  0.73639416  0.65830930  1
  O  O143  1  0.12891263  0.75152614  0.91654890  1
  O  O144  1  0.37393175  0.00610998  0.17192720  1
  O  O145  1  0.38052258  0.00380773  0.41846588  1
  O  O146  1  0.37818953  -0.00304135  0.65471214  1
  O  O147  1  0.37008568  -0.00297862  0.91016666  1
  O  O148  1  0.37125989  0.24767896  0.16805388  1
  O  O149  1  0.37522627  0.26083157  0.42588264  1
  O  O150  1  0.37835153  0.25923373  0.66074793  1
  O  O151  1  0.37013980  0.24580169  0.90353339  1
  O  O152  1  0.37077169  0.49157870  0.15576499  1
  O  O153  1  0.37531261  0.49019122  0.41613532  1
  O  O154  1  0.38733746  0.50139127  0.66848822  1
  O  O155  1  0.36977212  0.50831254  0.91280950  1
  O  O156  1  0.37245062  0.75391029  0.16897952  1
  O  O157  1  0.38083405  0.74914211  0.40711508  1
  O  O158  1  0.38871034  0.74354589  0.65907389  1
  O  O159  1  0.37129142  0.74729574  0.91648599  1
  O  O160  1  0.62070709  0.00591775  0.16673806  1
  O  O161  1  0.63098440  0.01161124  0.41303003  1
  O  O162  1  0.63283672  -0.00714112  0.66592338  1
  O  O163  1  0.62553147  -0.00752990  0.91110609  1
  O  O164  1  0.61982675  0.24142187  0.15750271  1
  O  O165  1  0.62715550  0.25325292  0.42135311  1
  O  O166  1  0.62692425  0.25531051  0.67385284  1
  O  O167  1  0.62708673  0.24005965  0.90898736  1
  O  O168  1  0.62096270  0.49501130  0.14817169  1
  O  O169  1  0.62584862  0.49100163  0.41097291  1
  O  O170  1  0.62282813  0.49730444  0.66945829  1
  O  O171  1  0.62144298  0.50842978  0.91777815  1
  O  O172  1  0.62279496  0.75959754  0.15479000  1
  O  O173  1  0.62782663  0.75132829  0.40079382  1
  O  O174  1  0.62262511  0.75291749  0.66468266  1
  O  O175  1  0.62225430  0.75521945  0.92168900  1
  O  O176  1  0.87544205  0.00398780  0.16863120  1
  O  O177  1  0.86497410  0.01092726  0.41413876  1
  O  O178  1  0.87165051  -0.01405071  0.66066734  1
  O  O179  1  0.88143582  0.00140287  0.91476451  1
  O  O180  1  0.87799905  0.24631922  0.16142009  1
  O  O181  1  0.87164060  0.25076685  0.42025662  1
  O  O182  1  0.87748344  0.25004658  0.65187522  1
  O  O183  1  0.88232754  0.23965745  0.90698796  1
  O  O184  1  0.87929926  0.49954551  0.15427631  1
  O  O185  1  0.87083161  0.49864005  0.41178764  1
  O  O186  1  0.86690491  0.50644024  0.67389185  1
  O  O187  1  0.87863583  0.50152726  0.91335672  1
  O  O188  1  0.87700610  0.75139992  0.16061635  1
  O  O189  1  0.86865796  0.74384093  0.40623504  1
  O  O190  1  0.86786007  0.75205477  0.66891800  1
  O  O191  1  0.87709660  0.75435535  0.92334808  1
  O  O192  1  0.01015643  0.12294801  0.16274494  1
  O  O193  1  -0.01103425  0.12928331  0.41722022  1
  O  O194  1  -0.01357086  0.11794588  0.66320452  1
  O  O195  1  0.00775362  0.11795997  0.91330834  1
  O  O196  1  0.00598652  0.37106847  0.16234632  1
  O  O197  1  -0.00294644  0.37545923  0.41593853  1
  O  O198  1  -0.00253753  0.38415275  0.66637513  1
  O  O199  1  0.00695480  0.37337288  0.90887469  1
  O  O200  1  0.00783305  0.62787697  0.16291565  1
  O  O201  1  -0.01240110  0.61986931  0.40954983  1
  O  O202  1  -0.00481715  0.62661091  0.64764851  1
  O  O203  1  0.01314830  0.63079053  0.91323878  1
  O  O204  1  0.00841414  0.88012525  0.16694155  1
  O  O205  1  -0.01007393  0.87910948  0.41489349  1
  O  O206  1  -0.00757917  0.86505686  0.65552570  1
  O  O207  1  0.01069017  0.87199917  0.91354105  1
  O  O208  1  0.24851246  0.12221006  0.17183780  1
  O  O209  1  0.24535779  0.13137452  0.42068959  1
  O  O210  1  0.24904811  0.12673562  0.65146968  1
  O  O211  1  0.23901718  0.11828781  0.90494037  1
  O  O212  1  0.25613361  0.36979633  0.16873436  1
  O  O213  1  0.25061745  0.37373185  0.41765334  1
  O  O214  1  0.25939282  0.38341000  0.66167082  1
  O  O215  1  0.24787984  0.37581802  0.90986117  1
  O  O216  1  0.24326379  0.62796586  0.16796370  1
  O  O217  1  0.25105631  0.62018116  0.41009149  1
  O  O218  1  0.27195807  0.62311363  0.65924632  1
  O  O219  1  0.24858657  0.62963133  0.91565125  1
  O  O220  1  0.24354284  0.87987531  0.17307299  1
  O  O221  1  0.24917716  0.87851634  0.41225747  1
  O  O222  1  0.25047698  0.86706510  0.65053755  1
  O  O223  1  0.24327194  0.87259141  0.91323582  1
  O  O224  1  0.49853833  0.12517460  0.16481198  1
  O  O225  1  0.51253356  0.13275917  0.41958050  1
  O  O226  1  0.50372649  0.12587129  0.66500007  1
  O  O227  1  0.49804909  0.11819970  0.89931769  1
  O  O228  1  0.48900613  0.36711995  0.15485864  1
  O  O229  1  0.49812691  0.37296510  0.41243626  1
  O  O230  1  0.50402088  0.37474372  0.67143565  1
  O  O231  1  0.49397736  0.37615482  0.91531464  1
  O  O232  1  0.49968287  0.62575629  0.16022394  1
  O  O233  1  0.50256297  0.61911083  0.41120282  1
  O  O234  1  0.50472242  0.62336157  0.67506874  1
  O  O235  1  0.49059094  0.62833285  0.91644051  1
  O  O236  1  0.50617761  0.88144985  0.16662583  1
  O  O237  1  0.51638580  0.88076194  0.41308667  1
  O  O238  1  0.50990335  0.87631650  0.66215542  1
  O  O239  1  0.50371677  0.87397323  0.91260091  1
  O  O240  1  0.74120040  0.12459587  0.15551974  1
  O  O241  1  0.74774619  0.13411508  0.42142151  1
  O  O242  1  0.76513452  0.12235333  0.67515408  1
  O  O243  1  0.75998944  0.11875350  0.90396720  1
  O  O244  1  0.74878876  0.36921009  0.15080261  1
  O  O245  1  0.75006357  0.37247171  0.41382605  1
  O  O246  1  0.74306089  0.37671832  0.67302903  1
  O  O247  1  0.75228111  0.37231300  0.91153379  1
  O  O248  1  0.74893587  0.62601045  0.14901924  1
  O  O249  1  0.75288413  0.62084113  0.40948343  1
  O  O250  1  0.73825456  0.62601377  0.67364998  1
  O  O251  1  0.74556069  0.62975482  0.91914641  1
  O  O252  1  0.73961623  0.88218098  0.16210640  1
  O  O253  1  0.74226677  0.87936865  0.41623540  1
  O  O254  1  0.74740853  0.86946344  0.66744074  1
  O  O255  1  0.74411003  0.87347407  0.91418748  1
  O  O256  1  0.13108774  0.12125672  0.05032915  1
  O  O257  1  0.12149361  0.13127530  0.31470431  1
  O  O258  1  0.11145447  0.13443976  0.52787657  1
  O  O259  1  0.11866886  0.11562093  0.78941513  1
  O  O260  1  0.13271501  0.36609457  0.03445176  1
  O  O261  1  0.12561419  0.37282479  0.29976517  1
  O  O262  1  0.12520569  0.37656766  0.54536337  1
  O  O263  1  0.12571937  0.38184181  0.77336917  1
  O  O264  1  0.12811661  0.62774002  0.05151625  1
  O  O265  1  0.12176075  0.61726445  0.28224200  1
  O  O266  1  0.12153004  0.62201139  0.54089780  1
  O  O267  1  0.12983856  0.63539741  0.79642149  1
  O  O268  1  0.12997471  0.87810360  0.05518168  1
  O  O269  1  0.11796470  0.88261326  0.29181016  1
  O  O270  1  0.11750103  0.87129162  0.52503108  1
  O  O271  1  0.12728099  0.86880980  0.79477753  1
  O  O272  1  0.36910509  0.12335416  0.04897055  1
  O  O273  1  0.37997989  0.13785887  0.30008639  1
  O  O274  1  0.38897940  0.13005715  0.53203000  1
  O  O275  1  0.36537246  0.11777366  0.77293986  1
  O  O276  1  0.36364641  0.36932999  0.04451537  1
  O  O277  1  0.37396315  0.36943998  0.30133965  1
  O  O278  1  0.38352251  0.38374633  0.55420706  1
  O  O279  1  0.37980624  0.38105489  0.78065076  1
  O  O280  1  0.37066171  0.63285844  0.03956886  1
  O  O281  1  0.37472442  0.61596111  0.27888060  1
  O  O282  1  0.38998259  0.61970948  0.54711684  1
  O  O283  1  0.37515523  0.62962417  0.80103912  1
  O  O284  1  0.36697086  0.88098656  0.04273241  1
  O  O285  1  0.37587120  0.88643254  0.28764464  1
  O  O286  1  0.38520698  0.87342344  0.52800638  1
  O  O287  1  0.37641594  0.86888770  0.78245498  1
  O  O288  1  0.61985348  0.11767955  0.04459334  1
  O  O289  1  0.62873648  0.13084011  0.30136601  1
  O  O290  1  0.63919307  0.12903806  0.56460956  1
  O  O291  1  0.63547247  0.12060164  0.77471114  1
  O  O292  1  0.62439379  0.36637731  0.02156953  1
  O  O293  1  0.62641645  0.36950837  0.29385990  1
  O  O294  1  0.62660520  0.37619370  0.55770702  1
  O  O295  1  0.61961020  0.37233038  0.79513601  1
  O  O296  1  0.60987911  0.63046393  0.02400370  1
  O  O297  1  0.62234089  0.61608534  0.27843336  1
  O  O298  1  0.62241253  0.62355358  0.55066113  1
  O  O299  1  0.62108612  0.63246326  0.81481171  1
  O  O300  1  0.61886779  0.88490448  0.04679014  1
  O  O301  1  0.62995118  0.87814652  0.29463714  1
  O  O302  1  0.62978586  0.87276520  0.54886527  1
  O  O303  1  0.62419625  0.87001333  0.79914072  1
  O  O304  1  0.87993244  0.11504949  0.03105687  1
  O  O305  1  0.87404589  0.13176741  0.30213384  1
  O  O306  1  0.86642379  0.12311317  0.54749897  1
  O  O307  1  0.88686036  0.11741098  0.79770617  1
  O  O308  1  0.88414016  0.36975780  0.02529692  1
  O  O309  1  0.87469276  0.36987209  0.29654011  1
  O  O310  1  0.86818513  0.38957156  0.54236698  1
  O  O311  1  0.87921865  0.38140971  0.78542410  1
  O  O312  1  0.88555470  0.62912268  0.02580530  1
  O  O313  1  0.87230085  0.62146685  0.29321641  1
  O  O314  1  0.85600561  0.62413462  0.53783755  1
  O  O315  1  0.87291432  0.63827584  0.79646323  1
  O  O316  1  0.87491857  0.88511252  0.03896969  1
  O  O317  1  0.86892580  0.88167025  0.28226852  1
  O  O318  1  0.86490702  0.86743315  0.54721629  1
  O  O319  1  0.88025471  0.86379085  0.79041734  1
