# generated using pymatgen
data_VFe(PbO3)2
_symmetry_space_group_name_H-M   'P 1'
_cell_length_a   15.38629402
_cell_length_b   15.38541303
_cell_length_c   18.51955182
_cell_angle_alpha   90.02787538
_cell_angle_beta   89.95599067
_cell_angle_gamma   89.98845910
_symmetry_Int_Tables_number   1
_chemical_formula_structural   VFe(PbO3)2
_chemical_formula_sum   'V32 Fe32 Pb64 O192'
_cell_volume   4384.02952994
_cell_formula_units_Z   32
loop_
 _symmetry_equiv_pos_site_id
 _symmetry_equiv_pos_as_xyz
  1  'x, y, z'
loop_
 _atom_site_type_symbol
 _atom_site_label
 _atom_site_symmetry_multiplicity
 _atom_site_fract_x
 _atom_site_fract_y
 _atom_site_fract_z
 _atom_site_occupancy
  V  V0  1  0.87384865  0.62535342  0.13662034  1
  V  V1  1  0.12290068  0.87615809  0.89023705  1
  V  V2  1  0.12572147  0.12335848  0.89401544  1
  V  V3  1  0.12099122  0.12494274  0.63899447  1
  V  V4  1  0.87506330  0.87795230  0.39131806  1
  V  V5  1  0.12190498  0.12068566  0.38719475  1
  V  V6  1  0.87597711  0.62532407  0.39209230  1
  V  V7  1  0.62214540  0.62633493  0.14157856  1
  V  V8  1  0.62539121  0.88142065  0.14309154  1
  V  V9  1  0.12448179  0.37163469  0.38915171  1
  V  V10  1  0.87532302  0.37467762  0.64816760  1
  V  V11  1  0.62648442  0.63081953  0.88631275  1
  V  V12  1  0.87460436  0.62108077  0.64021489  1
  V  V13  1  0.62626183  0.12594349  0.39358116  1
  V  V14  1  0.12546972  0.37303838  0.64562804  1
  V  V15  1  0.87797523  0.62928237  0.88670911  1
  V  V16  1  0.62409676  0.37431096  0.64823075  1
  V  V17  1  0.37943722  0.37646238  0.13475646  1
  V  V18  1  0.87693199  0.12891161  0.64035148  1
  V  V19  1  0.12475667  0.62199824  0.39277469  1
  V  V20  1  0.37637140  0.62191537  0.39150443  1
  V  V21  1  0.87050891  0.37582238  0.13582542  1
  V  V22  1  0.62373818  0.37508105  0.39132402  1
  V  V23  1  0.12894669  0.62344427  0.13666896  1
  V  V24  1  0.37430113  0.87645511  0.88675393  1
  V  V25  1  0.37206886  0.62137432  0.64260607  1
  V  V26  1  0.62683373  0.62208865  0.63923468  1
  V  V27  1  0.87351833  0.12288009  0.88952422  1
  V  V28  1  0.12370257  0.87155964  0.39089756  1
  V  V29  1  0.87534537  0.37591906  0.38890401  1
  V  V30  1  0.62257485  0.13293163  0.13830046  1
  V  V31  1  0.62482289  0.87688474  0.88551612  1
  Fe  Fe32  1  0.37689303  0.87187610  0.13683942  1
  Fe  Fe33  1  0.37467722  0.12203153  0.88527954  1
  Fe  Fe34  1  0.62666850  0.37437509  0.88382449  1
  Fe  Fe35  1  0.37241288  0.37721250  0.38966534  1
  Fe  Fe36  1  0.37298046  0.12905611  0.39249254  1
  Fe  Fe37  1  0.37341829  0.87390711  0.62552474  1
  Fe  Fe38  1  0.62558145  0.87378295  0.62677785  1
  Fe  Fe39  1  0.87503211  0.12772162  0.38472795  1
  Fe  Fe40  1  0.62614752  0.62104601  0.38909502  1
  Fe  Fe41  1  0.87667092  0.87602499  0.63568319  1
  Fe  Fe42  1  0.37752210  0.62543843  0.13225855  1
  Fe  Fe43  1  0.87093284  0.12271336  0.13731372  1
  Fe  Fe44  1  0.62771823  0.12696577  0.64094759  1
  Fe  Fe45  1  0.12568653  0.12589490  0.13000330  1
  Fe  Fe46  1  0.62600398  0.11984057  0.87582929  1
  Fe  Fe47  1  0.37899253  0.12384394  0.13231226  1
  Fe  Fe48  1  0.37286588  0.87406996  0.39660631  1
  Fe  Fe49  1  0.62596346  0.87251118  0.39614994  1
  Fe  Fe50  1  0.12183806  0.62180621  0.64410926  1
  Fe  Fe51  1  0.37584804  0.37516463  0.87603004  1
  Fe  Fe52  1  0.87236093  0.87054574  0.13495173  1
  Fe  Fe53  1  0.37310656  0.12661908  0.63335925  1
  Fe  Fe54  1  0.12604749  0.63038032  0.87645127  1
  Fe  Fe55  1  0.87548444  0.37463450  0.88388402  1
  Fe  Fe56  1  0.12551049  0.87318192  0.13356213  1
  Fe  Fe57  1  0.87397565  0.87541673  0.88668748  1
  Fe  Fe58  1  0.12419294  0.37647063  0.89079372  1
  Fe  Fe59  1  0.12559996  0.37598078  0.12838792  1
  Fe  Fe60  1  0.12460082  0.87494275  0.63121864  1
  Fe  Fe61  1  0.37654451  0.63014590  0.88019404  1
  Fe  Fe62  1  0.62580269  0.37688498  0.13047414  1
  Fe  Fe63  1  0.37541808  0.37499616  0.64888723  1
  Pb  Pb64  1  -0.00002014  0.00795544  0.00752369  1
  Pb  Pb65  1  -0.00069224  0.00040454  0.23973431  1
  Pb  Pb66  1  -0.00200856  -0.01072153  0.50358637  1
  Pb  Pb67  1  -0.00508926  -0.00762257  0.75087219  1
  Pb  Pb68  1  0.00385626  0.24888849  0.00147349  1
  Pb  Pb69  1  -0.00036155  0.24529378  0.24171362  1
  Pb  Pb70  1  -0.00074851  0.25080281  0.49884475  1
  Pb  Pb71  1  0.00276051  0.25719789  0.75900112  1
  Pb  Pb72  1  0.00775818  0.49773518  -0.00526034  1
  Pb  Pb73  1  -0.00125128  0.49931190  0.24456376  1
  Pb  Pb74  1  0.00491392  0.50496764  0.50558918  1
  Pb  Pb75  1  0.00410012  0.49373101  0.75947823  1
  Pb  Pb76  1  0.00201765  0.76153775  0.00094183  1
  Pb  Pb77  1  -0.00038581  0.75042996  0.24593747  1
  Pb  Pb78  1  0.00081113  0.75468003  0.50699987  1
  Pb  Pb79  1  0.00206677  0.75172717  0.74605613  1
  Pb  Pb80  1  0.24925211  -0.00016280  0.00522950  1
  Pb  Pb81  1  0.25315790  0.00170765  0.24208809  1
  Pb  Pb82  1  0.25730526  -0.00015053  0.50017609  1
  Pb  Pb83  1  0.25838446  0.00033449  0.74265183  1
  Pb  Pb84  1  0.25463376  0.25304710  -0.00628110  1
  Pb  Pb85  1  0.25174911  0.24624294  0.24195319  1
  Pb  Pb86  1  0.26037092  0.25235526  0.50630234  1
  Pb  Pb87  1  0.25772062  0.24741958  0.75534159  1
  Pb  Pb88  1  0.25378824  0.50706661  -0.01461781  1
  Pb  Pb89  1  0.25543129  0.49348379  0.24581796  1
  Pb  Pb90  1  0.24280999  0.50305024  0.50734671  1
  Pb  Pb91  1  0.24256822  0.49474604  0.75916408  1
  Pb  Pb92  1  0.25249345  0.75546281  -0.00165104  1
  Pb  Pb93  1  0.26242243  0.75873461  0.25057126  1
  Pb  Pb94  1  0.24257394  0.75076380  0.50359005  1
  Pb  Pb95  1  0.24680592  0.74687813  0.74366237  1
  Pb  Pb96  1  0.49374143  0.00410719  -0.00258504  1
  Pb  Pb97  1  0.48712472  -0.00420045  0.25789397  1
  Pb  Pb98  1  0.49485196  -0.00073372  0.50042645  1
  Pb  Pb99  1  0.50051902  0.00237410  0.73547979  1
  Pb  Pb100  1  0.50027357  0.24832564  -0.01515251  1
  Pb  Pb101  1  0.48340721  0.24992199  0.25819718  1
  Pb  Pb102  1  0.49089070  0.24902655  0.50888192  1
  Pb  Pb103  1  0.49085424  0.23757305  0.75264443  1
  Pb  Pb104  1  0.49490093  0.50176539  -0.00941449  1
  Pb  Pb105  1  0.49909268  0.49732577  0.24893814  1
  Pb  Pb106  1  0.48823272  0.49194722  0.50823661  1
  Pb  Pb107  1  0.49396442  0.50103709  0.75825107  1
  Pb  Pb108  1  0.49087778  0.75326441  0.00265690  1
  Pb  Pb109  1  0.50141762  0.75979027  0.26004435  1
  Pb  Pb110  1  0.50233525  0.75521692  0.49908865  1
  Pb  Pb111  1  0.49649327  0.74867656  0.74280793  1
  Pb  Pb112  1  0.76143676  0.00111872  0.00265412  1
  Pb  Pb113  1  0.75227144  0.00015111  0.25219572  1
  Pb  Pb114  1  0.73956745  0.00535019  0.50796383  1
  Pb  Pb115  1  0.74545408  -0.00129219  0.74420623  1
  Pb  Pb116  1  0.74342187  0.25236573  -0.00594834  1
  Pb  Pb117  1  0.75235930  0.24558830  0.25085895  1
  Pb  Pb118  1  0.74503453  0.24694737  0.50515296  1
  Pb  Pb119  1  0.74458768  0.25506164  0.75841736  1
  Pb  Pb120  1  0.74467491  0.49644486  -0.00296694  1
  Pb  Pb121  1  0.74416932  0.50626542  0.25037432  1
  Pb  Pb122  1  0.75115426  0.49784615  0.50103901  1
  Pb  Pb123  1  0.74901315  0.49424768  0.75763108  1
  Pb  Pb124  1  0.75190180  0.75643938  0.00061355  1
  Pb  Pb125  1  0.73659190  0.74886455  0.25784700  1
  Pb  Pb126  1  0.75098404  0.75550077  0.50208548  1
  Pb  Pb127  1  0.75595989  0.75886855  0.74618880  1
  O  O128  1  0.12483349  -0.00014939  0.16157029  1
  O  O129  1  0.11973978  0.00350895  0.40711098  1
  O  O130  1  0.12032688  0.00869335  0.65872546  1
  O  O131  1  0.12576921  -0.00465816  0.91686342  1
  O  O132  1  0.12344723  0.25393658  0.16089166  1
  O  O133  1  0.12020242  0.25581573  0.41153328  1
  O  O134  1  0.11983879  0.25174593  0.66882472  1
  O  O135  1  0.12170429  0.24159753  0.91082059  1
  O  O136  1  0.12259069  0.50247501  0.16318044  1
  O  O137  1  0.12226621  0.49586656  0.41951155  1
  O  O138  1  0.12143362  0.49177732  0.66782252  1
  O  O139  1  0.12167464  0.50713275  0.90920701  1
  O  O140  1  0.12367392  0.73772812  0.16451058  1
  O  O141  1  0.12309123  0.74617983  0.41658375  1
  O  O142  1  0.12332730  0.74874831  0.66017167  1
  O  O143  1  0.12590134  0.75753583  0.91009536  1
  O  O144  1  0.38061111  -0.00135508  0.16605925  1
  O  O145  1  0.37230667  0.00422906  0.41444377  1
  O  O146  1  0.37113923  0.00071246  0.65468566  1
  O  O147  1  0.37326832  -0.00752134  0.91309857  1
  O  O148  1  0.38046460  0.25696938  0.15938185  1
  O  O149  1  0.37391948  0.25470165  0.42084749  1
  O  O150  1  0.37133249  0.24900489  0.66665275  1
  O  O151  1  0.37345668  0.24883812  0.90698707  1
  O  O152  1  0.37675388  0.49671330  0.16340802  1
  O  O153  1  0.37232932  0.50313410  0.42122510  1
  O  O154  1  0.38048043  0.50571481  0.66805175  1
  O  O155  1  0.37920312  0.50347241  0.90403313  1
  O  O156  1  0.37757905  0.74624408  0.16798315  1
  O  O157  1  0.36940651  0.73716175  0.41608117  1
  O  O158  1  0.37758295  0.74194677  0.65791935  1
  O  O159  1  0.37831178  0.75909237  0.91062897  1
  O  O160  1  0.62564326  -0.00364053  0.16433373  1
  O  O161  1  0.62973392  0.00814710  0.41216756  1
  O  O162  1  0.62937254  -0.00149506  0.65825014  1
  O  O163  1  0.62534773  -0.00851470  0.90857946  1
  O  O164  1  0.62827141  0.24778935  0.15594779  1
  O  O165  1  0.62936240  0.25542274  0.41851770  1
  O  O166  1  0.63152168  0.25783680  0.66457342  1
  O  O167  1  0.63047096  0.24538489  0.90581454  1
  O  O168  1  0.62810446  0.50426736  0.16379429  1
  O  O169  1  0.62716757  0.49233795  0.41719894  1
  O  O170  1  0.62935198  0.50345346  0.67047400  1
  O  O171  1  0.62803045  0.51263079  0.90672411  1
  O  O172  1  0.62628324  0.74542339  0.16559845  1
  O  O173  1  0.62719231  0.74361890  0.42061051  1
  O  O174  1  0.62900870  0.74040272  0.65692545  1
  O  O175  1  0.62370295  0.75559874  0.91506237  1
  O  O176  1  0.86841825  -0.00421895  0.16591054  1
  O  O177  1  0.88003142  -0.00460882  0.40774372  1
  O  O178  1  0.88021782  0.00979763  0.66094034  1
  O  O179  1  0.87702174  0.00240854  0.91537286  1
  O  O180  1  0.86943784  0.25732372  0.15866289  1
  O  O181  1  0.87662742  0.25595251  0.41687118  1
  O  O182  1  0.87907849  0.24823418  0.66928020  1
  O  O183  1  0.87693164  0.24101882  0.91005910  1
  O  O184  1  0.87282524  0.49990488  0.16487978  1
  O  O185  1  0.87644952  0.49800630  0.41925571  1
  O  O186  1  0.87331337  0.50220763  0.66837244  1
  O  O187  1  0.87129669  0.51305416  0.90955575  1
  O  O188  1  0.87371862  0.74292679  0.16542571  1
  O  O189  1  0.87863587  0.74837004  0.41675532  1
  O  O190  1  0.87412194  0.74096190  0.66057167  1
  O  O191  1  0.87131750  0.74680189  0.91619290  1
  O  O192  1  -0.00259803  0.12656764  0.16137705  1
  O  O193  1  0.00463356  0.13056237  0.41401354  1
  O  O194  1  0.00130117  0.12979709  0.66945312  1
  O  O195  1  0.00060578  0.11916774  0.91559722  1
  O  O196  1  -0.01021852  0.37778901  0.15983173  1
  O  O197  1  0.00251458  0.37742712  0.41580909  1
  O  O198  1  0.00074845  0.37487637  0.67150880  1
  O  O199  1  -0.00391397  0.37545791  0.91583303  1
  O  O200  1  0.00018988  0.62086091  0.16365433  1
  O  O201  1  -0.00040863  0.62100392  0.42006688  1
  O  O202  1  -0.00953922  0.62083244  0.66370765  1
  O  O203  1  -0.00622786  0.63262185  0.90594681  1
  O  O204  1  -0.00078905  0.86923209  0.16342501  1
  O  O205  1  -0.00202556  0.87177652  0.41730768  1
  O  O206  1  0.00069256  0.87567546  0.66608254  1
  O  O207  1  0.00501055  0.87450646  0.91070111  1
  O  O208  1  0.25316198  0.12762765  0.16019219  1
  O  O209  1  0.23616915  0.13048762  0.41470700  1
  O  O210  1  0.23742393  0.12976076  0.66080894  1
  O  O211  1  0.24342249  0.11959455  0.91357914  1
  O  O212  1  0.25747075  0.37673857  0.15739018  1
  O  O213  1  0.24048378  0.37711486  0.41372693  1
  O  O214  1  0.24161517  0.37566597  0.66423935  1
  O  O215  1  0.25116467  0.37561402  0.90980047  1
  O  O216  1  0.24478362  0.61947755  0.15779561  1
  O  O217  1  0.24878164  0.61954249  0.42013125  1
  O  O218  1  0.25583926  0.62062908  0.66067584  1
  O  O219  1  0.25072269  0.63105346  0.90493387  1
  O  O220  1  0.24974644  0.87186664  0.16644888  1
  O  O221  1  0.24194706  0.87321882  0.41370583  1
  O  O222  1  0.24927366  0.87332493  0.65871216  1
  O  O223  1  0.25226586  0.87530365  0.91088366  1
  O  O224  1  0.50983459  0.12338090  0.16669270  1
  O  O225  1  0.50963604  0.13013182  0.41587723  1
  O  O226  1  0.50019378  0.12844156  0.65777983  1
  O  O227  1  0.50204056  0.11974255  0.90736082  1
  O  O228  1  0.49794997  0.37957098  0.15979296  1
  O  O229  1  0.50754270  0.37415230  0.41640199  1
  O  O230  1  0.50931939  0.37860211  0.66653721  1
  O  O231  1  0.50146261  0.37647169  0.90490377  1
  O  O232  1  0.50658846  0.62162070  0.16332118  1
  O  O233  1  0.49264289  0.62092641  0.41326180  1
  O  O234  1  0.50734649  0.62256516  0.66246293  1
  O  O235  1  0.50941558  0.63220668  0.91044732  1
  O  O236  1  0.50870921  0.87056891  0.16958609  1
  O  O237  1  0.49951640  0.87417120  0.41798000  1
  O  O238  1  0.49988756  0.87171229  0.65139976  1
  O  O239  1  0.50002972  0.87626519  0.90788362  1
  O  O240  1  0.73946167  0.12275657  0.16892223  1
  O  O241  1  0.74844102  0.12981250  0.41790406  1
  O  O242  1  0.76207655  0.12884571  0.66249652  1
  O  O243  1  0.75585585  0.11907301  0.90829873  1
  O  O244  1  0.75419243  0.37861032  0.16364066  1
  O  O245  1  0.74917903  0.37584582  0.41536842  1
  O  O246  1  0.75111725  0.37787219  0.66975397  1
  O  O247  1  0.75321989  0.37764864  0.91468501  1
  O  O248  1  0.74848736  0.62326603  0.16545906  1
  O  O249  1  0.75654206  0.62088594  0.41886968  1
  O  O250  1  0.75117534  0.62196384  0.66445531  1
  O  O251  1  0.74588745  0.63341334  0.91292069  1
  O  O252  1  0.74206473  0.86935078  0.16734782  1
  O  O253  1  0.75995977  0.87259756  0.41288035  1
  O  O254  1  0.75133524  0.87322404  0.65923792  1
  O  O255  1  0.74303996  0.87299570  0.91081306  1
  O  O256  1  0.12042747  0.12150290  0.02953569  1
  O  O257  1  0.12218234  0.12765660  0.29627479  1
  O  O258  1  0.11682549  0.13128942  0.54824310  1
  O  O259  1  0.12394452  0.11813672  0.80323901  1
  O  O260  1  0.11888623  0.37564681  0.02862779  1
  O  O261  1  0.12369346  0.37562157  0.29831118  1
  O  O262  1  0.12024120  0.37125049  0.55428075  1
  O  O263  1  0.11994119  0.37822721  0.78889733  1
  O  O264  1  0.12384093  0.62507652  0.04574764  1
  O  O265  1  0.12547164  0.61934504  0.30236309  1
  O  O266  1  0.12457783  0.61296171  0.54267204  1
  O  O267  1  0.12629041  0.62620072  0.77518711  1
  O  O268  1  0.12835648  0.86660298  0.03349783  1
  O  O269  1  0.11856730  0.86835310  0.30004547  1
  O  O270  1  0.11529298  0.87520731  0.53049741  1
  O  O271  1  0.12559010  0.88003011  0.79917655  1
  O  O272  1  0.38008795  0.11879665  0.03227103  1
  O  O273  1  0.38109431  0.13546314  0.29129243  1
  O  O274  1  0.36858478  0.13265192  0.53114264  1
  O  O275  1  0.36936220  0.12332277  0.78363374  1
  O  O276  1  0.37964276  0.37860792  0.04401337  1
  O  O277  1  0.37918904  0.37671867  0.28984703  1
  O  O278  1  0.37992761  0.37527169  0.54622196  1
  O  O279  1  0.37308223  0.37605013  0.77385030  1
  O  O280  1  0.38382331  0.62881065  0.03259961  1
  O  O281  1  0.37211066  0.61715540  0.30037360  1
  O  O282  1  0.37744831  0.61633615  0.55114195  1
  O  O283  1  0.38534472  0.63233305  0.77973482  1
  O  O284  1  0.37808581  0.86951010  0.03662352  1
  O  O285  1  0.37894502  0.86792241  0.29439411  1
  O  O286  1  0.36727877  0.87408509  0.52407048  1
  O  O287  1  0.37266454  0.87769309  0.79580288  1
  O  O288  1  0.62461673  0.12363794  0.04740581  1
  O  O289  1  0.62841992  0.13270676  0.30274959  1
  O  O290  1  0.63825434  0.12825752  0.53946532  1
  O  O291  1  0.62954817  0.12111420  0.77509135  1
  O  O292  1  0.63311957  0.37822804  0.03122635  1
  O  O293  1  0.62337058  0.37344429  0.30030354  1
  O  O294  1  0.62864171  0.38004041  0.55685519  1
  O  O295  1  0.63839977  0.37755650  0.78309687  1
  O  O296  1  0.62400297  0.62764659  0.05070030  1
  O  O297  1  0.63235145  0.62274569  0.28937047  1
  O  O298  1  0.62793075  0.61413022  0.54854594  1
  O  O299  1  0.62719145  0.63508714  0.79540015  1
  O  O300  1  0.62414564  0.87859192  0.05211257  1
  O  O301  1  0.62493682  0.86485519  0.29484931  1
  O  O302  1  0.63352995  0.87752321  0.52505330  1
  O  O303  1  0.62629722  0.87321162  0.79436869  1
  O  O304  1  0.87046029  0.11637433  0.03728074  1
  O  O305  1  0.86609026  0.13184351  0.28547020  1
  O  O306  1  0.88136783  0.13217721  0.54906001  1
  O  O307  1  0.87829568  0.11994219  0.79869580  1
  O  O308  1  0.86910589  0.37990154  0.04491918  1
  O  O309  1  0.87516737  0.37641866  0.29808413  1
  O  O310  1  0.87664105  0.37441942  0.55702984  1
  O  O311  1  0.87658230  0.37591735  0.78348030  1
  O  O312  1  0.87487567  0.62545934  0.04578056  1
  O  O313  1  0.87634709  0.62362487  0.30119223  1
  O  O314  1  0.87341877  0.61759878  0.54894306  1
  O  O315  1  0.87283075  0.63225823  0.79567346  1
  O  O316  1  0.86894502  0.87084177  0.03424603  1
  O  O317  1  0.87801219  0.86997258  0.30050042  1
  O  O318  1  0.88441196  0.87547207  0.53524939  1
  O  O319  1  0.87576113  0.87348186  0.78655532  1
