# generated using pymatgen
data_VFe(PbO3)2
_symmetry_space_group_name_H-M   'P 1'
_cell_length_a   15.39686527
_cell_length_b   15.41023442
_cell_length_c   18.42419125
_cell_angle_alpha   89.95764137
_cell_angle_beta   89.96007196
_cell_angle_gamma   90.00702715
_symmetry_Int_Tables_number   1
_chemical_formula_structural   VFe(PbO3)2
_chemical_formula_sum   'V32 Fe32 Pb64 O192'
_cell_volume   4371.49272769
_cell_formula_units_Z   32
loop_
 _symmetry_equiv_pos_site_id
 _symmetry_equiv_pos_as_xyz
  1  'x, y, z'
loop_
 _atom_site_type_symbol
 _atom_site_label
 _atom_site_symmetry_multiplicity
 _atom_site_fract_x
 _atom_site_fract_y
 _atom_site_fract_z
 _atom_site_occupancy
  V  V0  1  0.37246279  0.37614705  0.64119530  1
  V  V1  1  0.87728862  0.62306016  0.64674801  1
  V  V2  1  0.62442648  0.37501754  0.88476446  1
  V  V3  1  0.37608406  0.62499617  0.38917979  1
  V  V4  1  0.37355164  0.37697380  0.88423663  1
  V  V5  1  0.87278739  0.37311589  0.13384049  1
  V  V6  1  0.62631237  0.12505693  0.39863082  1
  V  V7  1  0.62382670  0.37216474  0.40303590  1
  V  V8  1  0.12305166  0.12275182  0.39177963  1
  V  V9  1  0.12623581  0.62185874  0.64956040  1
  V  V10  1  0.62375547  0.12520601  0.13799898  1
  V  V11  1  0.37638736  0.37241103  0.13413111  1
  V  V12  1  0.12393728  0.37162056  0.39105836  1
  V  V13  1  0.62346747  0.12446831  0.64053322  1
  V  V14  1  0.62702916  0.62457572  0.39260044  1
  V  V15  1  0.12362999  0.62681682  0.38809153  1
  V  V16  1  0.37406656  0.12401952  0.39343226  1
  V  V17  1  0.37026749  0.62404244  0.64617836  1
  V  V18  1  0.87213373  0.87710948  0.13156102  1
  V  V19  1  0.87656673  0.87388395  0.39792202  1
  V  V20  1  0.12763324  0.86133686  0.66061326  1
  V  V21  1  0.12532664  0.87720265  0.39132873  1
  V  V22  1  0.87575804  0.62506827  0.39258485  1
  V  V23  1  0.12552017  0.37527410  0.64796790  1
  V  V24  1  0.87439772  0.37533196  0.39615013  1
  V  V25  1  0.87474482  0.37701138  0.88184156  1
  V  V26  1  0.12807880  0.11160689  0.65565252  1
  V  V27  1  0.37360067  0.87596521  0.64776963  1
  V  V28  1  0.87528198  0.37748350  0.64118296  1
  V  V29  1  0.12547360  0.62330833  0.88910050  1
  V  V30  1  0.87547961  0.12401850  0.39829847  1
  V  V31  1  0.62748502  0.87690152  0.87919542  1
  Fe  Fe32  1  0.37976816  0.12783445  0.87935041  1
  Fe  Fe33  1  0.87256831  0.62613319  0.12833026  1
  Fe  Fe34  1  0.62554985  0.12588176  0.87617937  1
  Fe  Fe35  1  0.62624500  0.37265339  0.13194674  1
  Fe  Fe36  1  0.62452193  0.87663166  0.39462944  1
  Fe  Fe37  1  0.37302549  0.87531551  0.38710148  1
  Fe  Fe38  1  0.12378542  0.62455752  0.12989419  1
  Fe  Fe39  1  0.87739051  0.87369791  0.64806690  1
  Fe  Fe40  1  0.88035911  0.12724326  0.64915600  1
  Fe  Fe41  1  0.37744568  0.12638101  0.12744728  1
  Fe  Fe42  1  0.62631258  0.62286823  0.13385564  1
  Fe  Fe43  1  0.62131459  0.62392713  0.64406545  1
  Fe  Fe44  1  0.12341338  0.12590996  0.12716731  1
  Fe  Fe45  1  0.12455164  0.12732095  0.87825759  1
  Fe  Fe46  1  0.62194104  0.37711536  0.63360869  1
  Fe  Fe47  1  0.62228543  0.87329207  0.63586016  1
  Fe  Fe48  1  0.37441321  0.37416573  0.38925706  1
  Fe  Fe49  1  0.37746972  0.87822049  0.12069415  1
  Fe  Fe50  1  0.37617150  0.62430782  0.12420758  1
  Fe  Fe51  1  0.12472166  0.37647470  0.89195664  1
  Fe  Fe52  1  0.37914453  0.62273797  0.89644899  1
  Fe  Fe53  1  0.86965285  0.12374602  0.13077409  1
  Fe  Fe54  1  0.62678065  0.87617696  0.13076879  1
  Fe  Fe55  1  0.87177078  0.87318438  0.87532015  1
  Fe  Fe56  1  0.12309452  0.87701550  0.11878744  1
  Fe  Fe57  1  0.87127108  0.12735074  0.87467907  1
  Fe  Fe58  1  0.12291242  0.37259920  0.12426590  1
  Fe  Fe59  1  0.37957799  0.87412299  0.89307036  1
  Fe  Fe60  1  0.12314418  0.87380472  0.88780522  1
  Fe  Fe61  1  0.62559808  0.62530809  0.87849033  1
  Fe  Fe62  1  0.37026745  0.12518148  0.64944049  1
  Fe  Fe63  1  0.87297557  0.62325980  0.88671259  1
  Pb  Pb64  1  0.00138463  0.00385222  -0.01733784  1
  Pb  Pb65  1  0.00123702  0.00157897  0.23783642  1
  Pb  Pb66  1  -0.00766031  -0.00187825  0.51434959  1
  Pb  Pb67  1  -0.00108443  -0.00991609  0.76110859  1
  Pb  Pb68  1  0.00608248  0.24340984  -0.00829052  1
  Pb  Pb69  1  0.00034813  0.24719355  0.24128925  1
  Pb  Pb70  1  -0.00162096  0.24095288  0.50954892  1
  Pb  Pb71  1  0.00573124  0.24567204  0.75918568  1
  Pb  Pb72  1  0.00220757  0.50493571  0.00071435  1
  Pb  Pb73  1  0.00034064  0.49988814  0.24046323  1
  Pb  Pb74  1  0.00041689  0.49997986  0.50062767  1
  Pb  Pb75  1  0.00023859  0.49812849  0.76132429  1
  Pb  Pb76  1  -0.00256876  0.75075509  -0.00859941  1
  Pb  Pb77  1  0.00121520  0.75127336  0.23715794  1
  Pb  Pb78  1  -0.00440025  0.75613379  0.50822037  1
  Pb  Pb79  1  -0.01179773  0.74543792  0.76536906  1
  Pb  Pb80  1  0.25098364  -0.00066387  -0.01317629  1
  Pb  Pb81  1  0.25302375  -0.00384595  0.23208372  1
  Pb  Pb82  1  0.25104252  0.00554449  0.50736012  1
  Pb  Pb83  1  0.25431089  -0.01941252  0.77475846  1
  Pb  Pb84  1  0.24675225  0.23630113  -0.00671847  1
  Pb  Pb85  1  0.24890271  0.24827261  0.24087671  1
  Pb  Pb86  1  0.25136192  0.24101335  0.50762946  1
  Pb  Pb87  1  0.24341287  0.24605431  0.76147460  1
  Pb  Pb88  1  0.24777568  0.50677456  0.00272076  1
  Pb  Pb89  1  0.24920672  0.49821343  0.23905501  1
  Pb  Pb90  1  0.24826089  0.49840763  0.49762339  1
  Pb  Pb91  1  0.24826892  0.49628750  0.76276107  1
  Pb  Pb92  1  0.25585137  0.75416403  -0.00438313  1
  Pb  Pb93  1  0.25432447  0.75621439  0.23062125  1
  Pb  Pb94  1  0.24717533  0.75173980  0.50045269  1
  Pb  Pb95  1  0.26589795  0.74655195  0.77152232  1
  Pb  Pb96  1  0.49774905  0.00062183  -0.00829855  1
  Pb  Pb97  1  0.49286061  -0.01367426  0.24703023  1
  Pb  Pb98  1  0.49908385  -0.00451267  0.50456249  1
  Pb  Pb99  1  0.49616898  0.00653884  0.75365771  1
  Pb  Pb100  1  0.49961351  0.24755402  -0.00565633  1
  Pb  Pb101  1  0.49415152  0.25518663  0.25093400  1
  Pb  Pb102  1  0.49289845  0.24435269  0.50791032  1
  Pb  Pb103  1  0.50109662  0.24317447  0.75111376  1
  Pb  Pb104  1  0.50949069  0.50505273  -0.00148713  1
  Pb  Pb105  1  0.49879977  0.49911566  0.24373028  1
  Pb  Pb106  1  0.50757711  0.50272213  0.50698163  1
  Pb  Pb107  1  0.50050572  0.50665349  0.75341942  1
  Pb  Pb108  1  0.50836182  0.75332071  -0.00409061  1
  Pb  Pb109  1  0.49665752  0.75393300  0.23699259  1
  Pb  Pb110  1  0.50585826  0.75252263  0.50293202  1
  Pb  Pb111  1  0.49365172  0.74708564  0.75689609  1
  Pb  Pb112  1  0.75570136  0.00556794  -0.01211014  1
  Pb  Pb113  1  0.74263560  -0.00623519  0.25242399  1
  Pb  Pb114  1  0.75630585  -0.01043252  0.51369502  1
  Pb  Pb115  1  0.75603828  -0.00056865  0.74414124  1
  Pb  Pb116  1  0.75128339  0.24912754  -0.00665031  1
  Pb  Pb117  1  0.74839008  0.24785054  0.24884445  1
  Pb  Pb118  1  0.75574976  0.24351851  0.51115355  1
  Pb  Pb119  1  0.74593206  0.24276940  0.75042820  1
  Pb  Pb120  1  0.74438556  0.50499179  -0.00266215  1
  Pb  Pb121  1  0.74806997  0.50115980  0.24569493  1
  Pb  Pb122  1  0.74072337  0.50278177  0.50944262  1
  Pb  Pb123  1  0.74429367  0.50625471  0.75296005  1
  Pb  Pb124  1  0.74577616  0.74474196  -0.00852975  1
  Pb  Pb125  1  0.74304331  0.75244895  0.24577338  1
  Pb  Pb126  1  0.74370905  0.75117946  0.50830096  1
  Pb  Pb127  1  0.74314689  0.75083946  0.74672232  1
  O  O128  1  0.12074619  -0.00065613  0.15637800  1
  O  O129  1  0.12389817  0.00033410  0.42268691  1
  O  O130  1  0.12984520  -0.00146054  0.66887311  1
  O  O131  1  0.12388376  0.00343222  0.90108089  1
  O  O132  1  0.12201206  0.25188019  0.16232896  1
  O  O133  1  0.12344522  0.24683528  0.41916603  1
  O  O134  1  0.12742557  0.26266270  0.66603951  1
  O  O135  1  0.12360870  0.25158526  0.90759824  1
  O  O136  1  0.12306236  0.49520344  0.16147208  1
  O  O137  1  0.12340250  0.50068331  0.41548784  1
  O  O138  1  0.12840972  0.50483923  0.67154339  1
  O  O139  1  0.12384930  0.50410256  0.91365386  1
  O  O140  1  0.12196152  0.75281066  0.15655268  1
  O  O141  1  0.12408438  0.75045260  0.41845187  1
  O  O142  1  0.12754685  0.74433528  0.67612711  1
  O  O143  1  0.12525596  0.74158498  0.90700636  1
  O  O144  1  0.37815705  0.00265290  0.15662941  1
  O  O145  1  0.37300823  0.00450684  0.42017294  1
  O  O146  1  0.37082850  -0.00728967  0.66548755  1
  O  O147  1  0.37987368  0.00256424  0.90200061  1
  O  O148  1  0.37798202  0.25386680  0.16318960  1
  O  O149  1  0.37315138  0.24528775  0.42185253  1
  O  O150  1  0.36984486  0.26263593  0.66235087  1
  O  O151  1  0.38262558  0.26029592  0.90704970  1
  O  O152  1  0.37508929  0.49044723  0.15797103  1
  O  O153  1  0.37168675  0.50728553  0.41599962  1
  O  O154  1  0.36819945  0.50393723  0.66795977  1
  O  O155  1  0.38015988  0.49016864  0.91323800  1
  O  O156  1  0.37619261  0.75094174  0.14984979  1
  O  O157  1  0.37246429  0.74154107  0.41640646  1
  O  O158  1  0.36991638  0.74606388  0.66996064  1
  O  O159  1  0.37615574  0.74891866  0.91399466  1
  O  O160  1  0.62779253  0.00808058  0.16350061  1
  O  O161  1  0.62605139  0.00907565  0.42160573  1
  O  O162  1  0.62148502  0.00600011  0.66076477  1
  O  O163  1  0.62640816  -0.00390056  0.89955406  1
  O  O164  1  0.62756717  0.24592484  0.16696436  1
  O  O165  1  0.62605792  0.24432764  0.42670911  1
  O  O166  1  0.62269027  0.25050637  0.65782799  1
  O  O167  1  0.62701368  0.25764603  0.90627385  1
  O  O168  1  0.62650222  0.49551340  0.16836685  1
  O  O169  1  0.62547035  0.50186765  0.41968010  1
  O  O170  1  0.62434618  0.49756318  0.66751748  1
  O  O171  1  0.62616652  0.49310222  0.90760714  1
  O  O172  1  0.62710517  0.74992925  0.16373274  1
  O  O173  1  0.62555880  0.74503170  0.41874054  1
  O  O174  1  0.62312104  0.74903879  0.66325465  1
  O  O175  1  0.62677865  0.75471167  0.90172183  1
  O  O176  1  0.87183045  -0.00574912  0.16143495  1
  O  O177  1  0.87702370  -0.00000617  0.42583561  1
  O  O178  1  0.88034370  0.00148298  0.66519122  1
  O  O179  1  0.87035609  0.00015669  0.89840758  1
  O  O180  1  0.87226449  0.25458463  0.16287409  1
  O  O181  1  0.87671172  0.24938962  0.42418035  1
  O  O182  1  0.88257263  0.26394024  0.66295649  1
  O  O183  1  0.86846815  0.26008788  0.90500190  1
  O  O184  1  0.87413837  0.49162456  0.15916446  1
  O  O185  1  0.87824899  0.50122680  0.42042963  1
  O  O186  1  0.88306729  0.50033345  0.66899598  1
  O  O187  1  0.87225456  0.49203972  0.90995341  1
  O  O188  1  0.87227469  0.75846012  0.15730934  1
  O  O189  1  0.87727971  0.74844515  0.42377211  1
  O  O190  1  0.88347889  0.74020810  0.66452389  1
  O  O191  1  0.87334294  0.74990181  0.90705801  1
  O  O192  1  -0.00493491  0.12573754  0.16177529  1
  O  O193  1  0.00023286  0.12422193  0.42347489  1
  O  O194  1  0.01034572  0.13265457  0.66848610  1
  O  O195  1  -0.00427768  0.13013151  0.89786857  1
  O  O196  1  -0.00827485  0.37284714  0.15914309  1
  O  O197  1  0.00093218  0.37413089  0.42298484  1
  O  O198  1  0.00569839  0.38369377  0.66749416  1
  O  O199  1  -0.00931165  0.37584580  0.90416106  1
  O  O200  1  -0.00404968  0.62426371  0.16345934  1
  O  O201  1  0.00107429  0.62564800  0.41997691  1
  O  O202  1  0.00753459  0.62281365  0.67136838  1
  O  O203  1  0.00422721  0.62212009  0.90961929  1
  O  O204  1  -0.00891810  0.87614979  0.15442037  1
  O  O205  1  0.00264199  0.87554068  0.42533575  1
  O  O206  1  0.01085390  0.87314243  0.66986488  1
  O  O207  1  -0.00325330  0.87333514  0.90298281  1
  O  O208  1  0.25069405  0.12828637  0.15812485  1
  O  O209  1  0.24725495  0.12430015  0.42079070  1
  O  O210  1  0.24389658  0.13312654  0.67149659  1
  O  O211  1  0.25351202  0.13150220  0.89878490  1
  O  O212  1  0.25557815  0.37130600  0.15440392  1
  O  O213  1  0.24457705  0.37480633  0.41838178  1
  O  O214  1  0.24955045  0.38358153  0.67032267  1
  O  O215  1  0.25918669  0.37584342  0.90702729  1
  O  O216  1  0.25123084  0.62133439  0.15981777  1
  O  O217  1  0.24860311  0.62500436  0.41519615  1
  O  O218  1  0.24752267  0.62590388  0.67397497  1
  O  O219  1  0.24431323  0.62053940  0.91147044  1
  O  O220  1  0.24990208  0.87708661  0.14808642  1
  O  O221  1  0.24589136  0.87457695  0.42013235  1
  O  O222  1  0.25271258  0.87050939  0.67828950  1
  O  O223  1  0.24957748  0.87622841  0.90432600  1
  O  O224  1  0.50807232  0.12875437  0.16141432  1
  O  O225  1  0.50238501  0.12618776  0.41986800  1
  O  O226  1  0.50233814  0.12819262  0.66189092  1
  O  O227  1  0.50458680  0.13008282  0.90784766  1
  O  O228  1  0.49640127  0.37225421  0.16308396  1
  O  O229  1  0.50100221  0.37340857  0.42164938  1
  O  O230  1  0.48901941  0.38318002  0.65862605  1
  O  O231  1  0.50461504  0.37594475  0.90723239  1
  O  O232  1  0.49837719  0.62035960  0.16082993  1
  O  O233  1  0.49578828  0.62404891  0.41232611  1
  O  O234  1  0.48815130  0.62386251  0.66338156  1
  O  O235  1  0.50584657  0.62165185  0.91255117  1
  O  O236  1  0.50152670  0.87770651  0.15884429  1
  O  O237  1  0.49661486  0.87527984  0.42036762  1
  O  O238  1  0.49077822  0.87149075  0.66394256  1
  O  O239  1  0.51123953  0.87450244  0.90694354  1
  O  O240  1  0.74462642  0.12658205  0.16889256  1
  O  O241  1  0.74901803  0.12595512  0.42430747  1
  O  O242  1  0.74396303  0.13009736  0.65905001  1
  O  O243  1  0.74759322  0.12957590  0.90653374  1
  O  O244  1  0.75552183  0.37294071  0.16418437  1
  O  O245  1  0.75405509  0.37372802  0.42441906  1
  O  O246  1  0.75945035  0.38136338  0.65647621  1
  O  O247  1  0.74811340  0.37692896  0.90654102  1
  O  O248  1  0.75273693  0.62332316  0.16803757  1
  O  O249  1  0.75226759  0.62520366  0.41959974  1
  O  O250  1  0.75987417  0.62132572  0.65994225  1
  O  O251  1  0.74758362  0.62107385  0.90822284  1
  O  O252  1  0.75469847  0.87755636  0.16433135  1
  O  O253  1  0.75517893  0.87541500  0.42322906  1
  O  O254  1  0.74851750  0.87424296  0.66010279  1
  O  O255  1  0.74385747  0.87408731  0.90372825  1
  O  O256  1  0.12230612  0.13316577  0.02618853  1
  O  O257  1  0.12208515  0.12173495  0.30088460  1
  O  O258  1  0.12922302  0.12211401  0.56211390  1
  O  O259  1  0.12468850  0.13627580  0.77411460  1
  O  O260  1  0.11824518  0.37425125  0.02368298  1
  O  O261  1  0.12212921  0.37169331  0.30002400  1
  O  O262  1  0.12814934  0.38008258  0.55634048  1
  O  O263  1  0.12870769  0.38195143  0.78915056  1
  O  O264  1  0.12143753  0.61759826  0.03007371  1
  O  O265  1  0.12134722  0.62681650  0.29724768  1
  O  O266  1  0.12721033  0.62544685  0.55842716  1
  O  O267  1  0.12569850  0.61860972  0.79653358  1
  O  O268  1  0.12021742  0.87697160  0.01807897  1
  O  O269  1  0.12298431  0.87792785  0.30045631  1
  O  O270  1  0.13556925  0.86607855  0.56877324  1
  O  O271  1  0.12687417  0.87910735  0.78025956  1
  O  O272  1  0.38040567  0.13305845  0.02721091  1
  O  O273  1  0.37472120  0.12564333  0.30227512  1
  O  O274  1  0.36646582  0.12748389  0.54726448  1
  O  O275  1  0.38561956  0.12977421  0.77421764  1
  O  O276  1  0.38114857  0.36984510  0.04331063  1
  O  O277  1  0.37796303  0.36952282  0.29045665  1
  O  O278  1  0.36580086  0.38050141  0.54945299  1
  O  O279  1  0.37565566  0.38034041  0.79186137  1
  O  O280  1  0.37082226  0.61624822  0.02314965  1
  O  O281  1  0.37325390  0.62510475  0.29848026  1
  O  O282  1  0.36498203  0.62487988  0.55504251  1
  O  O283  1  0.37699612  0.62715004  0.79241461  1
  O  O284  1  0.38127549  0.88176082  0.01858985  1
  O  O285  1  0.37596951  0.87917564  0.28769080  1
  O  O286  1  0.36622657  0.86961941  0.55623746  1
  O  O287  1  0.37689777  0.86807000  0.78795555  1
  O  O288  1  0.62803031  0.12702081  0.04648891  1
  O  O289  1  0.62882381  0.12930396  0.30799287  1
  O  O290  1  0.62249671  0.12435270  0.54839505  1
  O  O291  1  0.62290751  0.13445846  0.77476565  1
  O  O292  1  0.62751067  0.37597231  0.03299458  1
  O  O293  1  0.62811500  0.37040270  0.31146742  1
  O  O294  1  0.62430595  0.38664500  0.53282639  1
  O  O295  1  0.62500123  0.37684148  0.79248428  1
  O  O296  1  0.63126024  0.61913375  0.03290199  1
  O  O297  1  0.62960588  0.62235804  0.30147354  1
  O  O298  1  0.62269165  0.61829052  0.54112610  1
  O  O299  1  0.62534528  0.61918973  0.77536871  1
  O  O300  1  0.62685097  0.87360898  0.03178275  1
  O  O301  1  0.63050752  0.88266670  0.29441008  1
  O  O302  1  0.62172474  0.87330555  0.53381074  1
  O  O303  1  0.62597695  0.87467812  0.78683533  1
  O  O304  1  0.86313270  0.12477390  0.03149084  1
  O  O305  1  0.87435572  0.12294846  0.30732499  1
  O  O306  1  0.88165845  0.13151700  0.54589159  1
  O  O307  1  0.86852270  0.13572450  0.77119019  1
  O  O308  1  0.87113771  0.37102877  0.04272150  1
  O  O309  1  0.87556096  0.37400863  0.30524567  1
  O  O310  1  0.88345989  0.38083661  0.54947288  1
  O  O311  1  0.87283046  0.37960087  0.78955387  1
  O  O312  1  0.87393489  0.62318108  0.02801277  1
  O  O313  1  0.87643080  0.62717875  0.30175193  1
  O  O314  1  0.88537283  0.61949494  0.55521609  1
  O  O315  1  0.88042768  0.62216495  0.78402193  1
  O  O316  1  0.86771262  0.87970478  0.04046115  1
  O  O317  1  0.87895650  0.87531669  0.30697416  1
  O  O318  1  0.88535213  0.87502577  0.54484173  1
  O  O319  1  0.87722989  0.87086362  0.77218748  1
