# generated using pymatgen
data_VFe(PbO3)2
_symmetry_space_group_name_H-M   'P 1'
_cell_length_a   15.38597154
_cell_length_b   15.37674576
_cell_length_c   18.50634908
_cell_angle_alpha   89.98503580
_cell_angle_beta   89.99716234
_cell_angle_gamma   90.00135501
_symmetry_Int_Tables_number   1
_chemical_formula_structural   VFe(PbO3)2
_chemical_formula_sum   'V32 Fe32 Pb64 O192'
_cell_volume   4378.34614370
_cell_formula_units_Z   32
loop_
 _symmetry_equiv_pos_site_id
 _symmetry_equiv_pos_as_xyz
  1  'x, y, z'
loop_
 _atom_site_type_symbol
 _atom_site_label
 _atom_site_symmetry_multiplicity
 _atom_site_fract_x
 _atom_site_fract_y
 _atom_site_fract_z
 _atom_site_occupancy
  V  V0  1  0.12459178  0.37754260  0.13887249  1
  V  V1  1  0.37566516  0.37491937  0.39252533  1
  V  V2  1  0.87757141  0.87299074  0.89438521  1
  V  V3  1  0.12291013  0.62508959  0.63890843  1
  V  V4  1  0.37526972  0.37729568  0.13869760  1
  V  V5  1  0.62787925  0.12550730  0.64072241  1
  V  V6  1  0.62480708  0.12507835  0.89301623  1
  V  V7  1  0.12486456  0.87396216  0.39536598  1
  V  V8  1  0.37306814  0.37679996  0.64135173  1
  V  V9  1  0.62704095  0.62451637  0.64747398  1
  V  V10  1  0.62875699  0.37787797  0.13773453  1
  V  V11  1  0.62667677  0.87637264  0.64184649  1
  V  V12  1  0.12736790  0.87964989  0.88685629  1
  V  V13  1  0.37326989  0.62342176  0.13755576  1
  V  V14  1  0.37781628  0.62618942  0.64643222  1
  V  V15  1  0.62658115  0.12467406  0.38598796  1
  V  V16  1  0.87125307  0.12094399  0.63943893  1
  V  V17  1  0.87413064  0.87592427  0.38835075  1
  V  V18  1  0.62340146  0.37543779  0.64526137  1
  V  V19  1  0.37399616  0.87379357  0.13699431  1
  V  V20  1  0.37500445  0.12326241  0.39265379  1
  V  V21  1  0.37451725  0.62403364  0.39033668  1
  V  V22  1  0.12194243  0.12605955  0.39437041  1
  V  V23  1  0.37817576  0.87648945  0.88465375  1
  V  V24  1  0.87524377  0.87481923  0.64242224  1
  V  V25  1  0.12305480  0.87276372  0.13830345  1
  V  V26  1  0.87712942  0.12463487  0.89149184  1
  V  V27  1  0.12412546  0.37105965  0.88347585  1
  V  V28  1  0.87582020  0.62408328  0.13729824  1
  V  V29  1  0.12505952  0.62580495  0.39193755  1
  V  V30  1  0.62472551  0.62489616  0.38893008  1
  V  V31  1  0.37360558  0.37302336  0.88389215  1
  Fe  Fe32  1  0.12400458  0.12422053  0.63155693  1
  Fe  Fe33  1  0.62513913  0.87201572  0.12583787  1
  Fe  Fe34  1  0.62632330  0.87764904  0.89653559  1
  Fe  Fe35  1  0.12583076  0.37561796  0.62960870  1
  Fe  Fe36  1  0.62493343  0.87283026  0.38458391  1
  Fe  Fe37  1  0.87379261  0.37327600  0.64264134  1
  Fe  Fe38  1  0.62034789  0.12636331  0.13337276  1
  Fe  Fe39  1  0.13046180  0.12598382  0.13425392  1
  Fe  Fe40  1  0.37453400  0.12835175  0.13760750  1
  Fe  Fe41  1  0.87515775  0.12346967  0.38114412  1
  Fe  Fe42  1  0.87700869  0.37708171  0.13436502  1
  Fe  Fe43  1  0.87597499  0.37147697  0.87920234  1
  Fe  Fe44  1  0.62202478  0.62287912  0.13089403  1
  Fe  Fe45  1  0.37934812  0.12554067  0.64048436  1
  Fe  Fe46  1  0.37169260  0.62682879  0.87993101  1
  Fe  Fe47  1  0.62373050  0.37063941  0.88068937  1
  Fe  Fe48  1  0.37390917  0.12395513  0.88045590  1
  Fe  Fe49  1  0.12369250  0.12566553  0.88820355  1
  Fe  Fe50  1  0.12761327  0.62534053  0.13504634  1
  Fe  Fe51  1  0.62484663  0.62428573  0.88458442  1
  Fe  Fe52  1  0.87578785  0.62605651  0.38763821  1
  Fe  Fe53  1  0.12809975  0.37511918  0.39736758  1
  Fe  Fe54  1  0.37694173  0.87291441  0.63338470  1
  Fe  Fe55  1  0.87692977  0.62435883  0.87646596  1
  Fe  Fe56  1  0.87209433  0.62764843  0.64437362  1
  Fe  Fe57  1  0.12381446  0.62458209  0.88550727  1
  Fe  Fe58  1  0.87674102  0.12713899  0.13823928  1
  Fe  Fe59  1  0.87353023  0.37544974  0.38441773  1
  Fe  Fe60  1  0.62177242  0.37548086  0.38569013  1
  Fe  Fe61  1  0.87736954  0.87313760  0.12852400  1
  Fe  Fe62  1  0.37578971  0.87343883  0.39183624  1
  Fe  Fe63  1  0.12514085  0.87428927  0.63212675  1
  Pb  Pb64  1  -0.00731741  0.00277467  0.00570532  1
  Pb  Pb65  1  -0.00482274  0.00710587  0.24494132  1
  Pb  Pb66  1  0.00791147  -0.00044940  0.50347301  1
  Pb  Pb67  1  0.00997540  0.00500618  0.74993412  1
  Pb  Pb68  1  -0.00938079  0.24923852  0.00548005  1
  Pb  Pb69  1  -0.00380035  0.25141169  0.24958886  1
  Pb  Pb70  1  -0.00623646  0.26112810  0.50074093  1
  Pb  Pb71  1  0.00337348  0.25208358  0.74287062  1
  Pb  Pb72  1  -0.00556204  0.49884167  -0.00819825  1
  Pb  Pb73  1  -0.00623285  0.49745498  0.25542936  1
  Pb  Pb74  1  -0.00791107  0.49284724  0.50334368  1
  Pb  Pb75  1  -0.00571523  0.49793410  0.74621604  1
  Pb  Pb76  1  0.00064819  0.74648600  -0.00255337  1
  Pb  Pb77  1  -0.00439316  0.74217120  0.24881125  1
  Pb  Pb78  1  -0.00230700  0.74729645  0.50372082  1
  Pb  Pb79  1  0.00245483  0.73879635  0.75459079  1
  Pb  Pb80  1  0.24882788  0.01044487  -0.00086265  1
  Pb  Pb81  1  0.25381560  -0.00192484  0.24961387  1
  Pb  Pb82  1  0.24493686  0.00076444  0.50737801  1
  Pb  Pb83  1  0.25150688  0.00269365  0.74026202  1
  Pb  Pb84  1  0.24930874  0.24276892  -0.00220880  1
  Pb  Pb85  1  0.24304113  0.25599037  0.25349970  1
  Pb  Pb86  1  0.25168567  0.23850217  0.50783046  1
  Pb  Pb87  1  0.24359703  0.23581308  0.74761481  1
  Pb  Pb88  1  0.24498904  0.50292270  -0.00533369  1
  Pb  Pb89  1  0.24308792  0.49469311  0.25374391  1
  Pb  Pb90  1  0.24561907  0.49747604  0.50419927  1
  Pb  Pb91  1  0.24850097  0.50865028  0.75211018  1
  Pb  Pb92  1  0.24456098  0.74553730  -0.00372304  1
  Pb  Pb93  1  0.25742667  0.75480268  0.25250265  1
  Pb  Pb94  1  0.25305402  0.75776672  0.50436886  1
  Pb  Pb95  1  0.24921991  0.74689468  0.74803773  1
  Pb  Pb96  1  0.49860242  0.01051461  0.00443613  1
  Pb  Pb97  1  0.50628160  -0.00555600  0.24511095  1
  Pb  Pb98  1  0.49275606  -0.00338916  0.50192152  1
  Pb  Pb99  1  0.49501503  -0.00042683  0.74998327  1
  Pb  Pb100  1  0.49731700  0.24187891  0.00081476  1
  Pb  Pb101  1  0.50402411  0.25347678  0.24977855  1
  Pb  Pb102  1  0.49631384  0.24249216  0.50317394  1
  Pb  Pb103  1  0.50025920  0.25356079  0.75275314  1
  Pb  Pb104  1  0.50378784  0.50416829  -0.00943727  1
  Pb  Pb105  1  0.50523017  0.49694348  0.25021032  1
  Pb  Pb106  1  0.50141933  0.50113267  0.50170973  1
  Pb  Pb107  1  0.50493201  0.50528041  0.75767122  1
  Pb  Pb108  1  0.50803235  0.74583345  -0.00295359  1
  Pb  Pb109  1  0.50170845  0.75719478  0.24860189  1
  Pb  Pb110  1  0.49779229  0.75565870  0.50176926  1
  Pb  Pb111  1  0.50850144  0.74986540  0.75650808  1
  Pb  Pb112  1  0.75312863  0.00001665  0.00632564  1
  Pb  Pb113  1  0.74959663  -0.00033684  0.23639586  1
  Pb  Pb114  1  0.74824703  -0.00027014  0.49544010  1
  Pb  Pb115  1  0.74320838  -0.00601759  0.75909348  1
  Pb  Pb116  1  0.75624671  0.25087760  0.00107289  1
  Pb  Pb117  1  0.75828659  0.24771147  0.24695932  1
  Pb  Pb118  1  0.75667116  0.25985065  0.49757830  1
  Pb  Pb119  1  0.75007819  0.25781160  0.75472021  1
  Pb  Pb120  1  0.75282000  0.49649258  -0.01477160  1
  Pb  Pb121  1  0.76061467  0.50017398  0.25237678  1
  Pb  Pb122  1  0.75987540  0.49853761  0.50190224  1
  Pb  Pb123  1  0.75728087  0.49911586  0.75353170  1
  Pb  Pb124  1  0.74277527  0.74538860  -0.00261380  1
  Pb  Pb125  1  0.74256114  0.75525616  0.24085032  1
  Pb  Pb126  1  0.75529202  0.74173125  0.50267004  1
  Pb  Pb127  1  0.73928396  0.75279139  0.76171723  1
  O  O128  1  0.12977179  -0.00993679  0.16398532  1
  O  O129  1  0.12797759  0.00169043  0.41731072  1
  O  O130  1  0.12150698  -0.00068488  0.66229756  1
  O  O131  1  0.12087225  -0.00555483  0.91403222  1
  O  O132  1  0.13092872  0.25916139  0.16435748  1
  O  O133  1  0.12978706  0.24145443  0.41527035  1
  O  O134  1  0.12541058  0.24975668  0.65726512  1
  O  O135  1  0.12873874  0.25620950  0.91151735  1
  O  O136  1  0.12977971  0.49573774  0.16502970  1
  O  O137  1  0.12821890  0.50968798  0.41634941  1
  O  O138  1  0.12615475  0.50646656  0.66076838  1
  O  O139  1  0.12652511  0.49100063  0.90843182  1
  O  O140  1  0.12831861  0.75529217  0.16604408  1
  O  O141  1  0.12558774  0.74620109  0.41928166  1
  O  O142  1  0.12402226  0.74589843  0.66170996  1
  O  O143  1  0.12266223  0.76084362  0.91240147  1
  O  O144  1  0.37356146  -0.00914238  0.16137408  1
  O  O145  1  0.37626038  0.00583386  0.41366634  1
  O  O146  1  0.38173580  -0.00168063  0.66171986  1
  O  O147  1  0.37224256  -0.00675215  0.91160265  1
  O  O148  1  0.37329434  0.26105180  0.16430695  1
  O  O149  1  0.37645029  0.24713353  0.41762394  1
  O  O150  1  0.37914326  0.25976360  0.66329093  1
  O  O151  1  0.37193233  0.25433163  0.90920353  1
  O  O152  1  0.37253206  0.49608599  0.16577833  1
  O  O153  1  0.37602603  0.50190823  0.41999361  1
  O  O154  1  0.37849931  0.49763406  0.66915269  1
  O  O155  1  0.37090224  0.49228707  0.90749856  1
  O  O156  1  0.37163239  0.75129701  0.16280595  1
  O  O157  1  0.37547409  0.74290442  0.41950968  1
  O  O158  1  0.37846341  0.74627968  0.66560280  1
  O  O159  1  0.36656452  0.75974175  0.90759102  1
  O  O160  1  0.61981880  -0.00297074  0.15679110  1
  O  O161  1  0.62116932  0.00660659  0.41355832  1
  O  O162  1  0.62734315  0.00340338  0.66687456  1
  O  O163  1  0.62685983  0.00777031  0.91699864  1
  O  O164  1  0.61919778  0.26113262  0.16258376  1
  O  O165  1  0.62035419  0.24081935  0.41194542  1
  O  O166  1  0.62644961  0.24508000  0.66365999  1
  O  O167  1  0.62420872  0.24326382  0.91437546  1
  O  O168  1  0.61999646  0.49603068  0.16284882  1
  O  O169  1  0.62257130  0.50747796  0.41664137  1
  O  O170  1  0.62409594  0.50354278  0.66748326  1
  O  O171  1  0.62130749  0.49632198  0.90735944  1
  O  O172  1  0.62274843  0.74669915  0.16024082  1
  O  O173  1  0.62416918  0.74241659  0.41456198  1
  O  O174  1  0.62634754  0.75007214  0.66810982  1
  O  O175  1  0.62601332  0.75031455  0.91331068  1
  O  O176  1  0.87852193  -0.00186107  0.16039610  1
  O  O177  1  0.87541737  -0.00577220  0.41261265  1
  O  O178  1  0.86823802  0.00123558  0.66958648  1
  O  O179  1  0.87623528  0.00493890  0.91711199  1
  O  O180  1  0.87727820  0.25452335  0.16571334  1
  O  O181  1  0.87433659  0.24661127  0.41341822  1
  O  O182  1  0.86931313  0.23754963  0.66216446  1
  O  O183  1  0.87535765  0.24418477  0.91328607  1
  O  O184  1  0.87831404  0.50431884  0.16413670  1
  O  O185  1  0.87395278  0.50191770  0.41712740  1
  O  O186  1  0.87179429  0.50074563  0.66396874  1
  O  O187  1  0.87934853  0.49744529  0.90458556  1
  O  O188  1  0.87880117  0.74371629  0.15945869  1
  O  O189  1  0.87499805  0.75602844  0.41636180  1
  O  O190  1  0.87109854  0.76088070  0.66489688  1
  O  O191  1  0.87797526  0.75578070  0.90797245  1
  O  O192  1  0.00733242  0.12701063  0.16521428  1
  O  O193  1  0.00530723  0.12094557  0.41001026  1
  O  O194  1  -0.01055870  0.12092606  0.65747981  1
  O  O195  1  -0.00530876  0.12532870  0.91288936  1
  O  O196  1  0.00866936  0.37763895  0.16026025  1
  O  O197  1  0.00032354  0.37533201  0.41561031  1
  O  O198  1  0.00150568  0.37384285  0.66068536  1
  O  O199  1  0.00741918  0.37082851  0.90570674  1
  O  O200  1  -0.00143578  0.62427094  0.16422847  1
  O  O201  1  0.00704034  0.62790496  0.41539141  1
  O  O202  1  0.00492433  0.62763503  0.66053241  1
  O  O203  1  -0.00008826  0.62745356  0.91228782  1
  O  O204  1  0.00705746  0.87188273  0.16037916  1
  O  O205  1  -0.00430242  0.87436101  0.41689261  1
  O  O206  1  -0.00939860  0.87955027  0.66160997  1
  O  O207  1  -0.00019207  0.87872499  0.91496044  1
  O  O208  1  0.25189811  0.12391259  0.17089271  1
  O  O209  1  0.25483741  0.12403520  0.41677429  1
  O  O210  1  0.25152878  0.12510635  0.65889282  1
  O  O211  1  0.25021934  0.12313960  0.91230261  1
  O  O212  1  0.25186494  0.37834356  0.16568197  1
  O  O213  1  0.25854616  0.37517877  0.42224339  1
  O  O214  1  0.25657800  0.37984450  0.65815638  1
  O  O215  1  0.24962098  0.37380377  0.91057603  1
  O  O216  1  0.25454273  0.62467107  0.16773075  1
  O  O217  1  0.24840402  0.62669489  0.41735470  1
  O  O218  1  0.24748494  0.62551918  0.66323210  1
  O  O219  1  0.24888179  0.62558702  0.91400582  1
  O  O220  1  0.25117547  0.87205457  0.16509835  1
  O  O221  1  0.24701545  0.87311598  0.41779472  1
  O  O222  1  0.25045825  0.87340923  0.65785272  1
  O  O223  1  0.24432776  0.87873482  0.90807805  1
  O  O224  1  0.49677765  0.12773078  0.17022208  1
  O  O225  1  0.49784793  0.12487785  0.41462645  1
  O  O226  1  0.51083895  0.12595207  0.66444909  1
  O  O227  1  0.50230348  0.12407620  0.91093790  1
  O  O228  1  0.49472018  0.37902917  0.16253149  1
  O  O229  1  0.49616375  0.37554545  0.42077596  1
  O  O230  1  0.49912687  0.37704671  0.66987819  1
  O  O231  1  0.49115689  0.37217108  0.90679006  1
  O  O232  1  0.49223625  0.62322179  0.16312476  1
  O  O233  1  0.50161772  0.62466659  0.41613918  1
  O  O234  1  0.50412900  0.62508050  0.66944671  1
  O  O235  1  0.49443072  0.62659328  0.90875627  1
  O  O236  1  0.49222653  0.86988803  0.15682809  1
  O  O237  1  0.50273237  0.87377438  0.41853182  1
  O  O238  1  0.50787337  0.87413581  0.66399504  1
  O  O239  1  0.49209478  0.87528160  0.90725872  1
  O  O240  1  0.74619569  0.12816545  0.16093721  1
  O  O241  1  0.74349340  0.12148516  0.40665844  1
  O  O242  1  0.74636728  0.12248099  0.66971924  1
  O  O243  1  0.75191597  0.12474817  0.91548320  1
  O  O244  1  0.74453878  0.37912931  0.15590956  1
  O  O245  1  0.74571505  0.37496621  0.41499650  1
  O  O246  1  0.74415908  0.37355899  0.66708811  1
  O  O247  1  0.74981968  0.37018467  0.90766181  1
  O  O248  1  0.75676942  0.62266658  0.15787635  1
  O  O249  1  0.74355408  0.62581228  0.41356485  1
  O  O250  1  0.74271906  0.62742551  0.66785191  1
  O  O251  1  0.75341562  0.62482208  0.90602234  1
  O  O252  1  0.75170733  0.87174865  0.15497822  1
  O  O253  1  0.75489815  0.87532187  0.41180517  1
  O  O254  1  0.75001259  0.87785694  0.67279393  1
  O  O255  1  0.75982042  0.88047685  0.91535866  1
  O  O256  1  0.13528095  0.12653820  0.03381897  1
  O  O257  1  0.13005818  0.12344940  0.30338757  1
  O  O258  1  0.12908159  0.11719204  0.53067152  1
  O  O259  1  0.12377892  0.12572226  0.78716552  1
  O  O260  1  0.12756726  0.37726511  0.04797726  1
  O  O261  1  0.13634199  0.37603427  0.29651621  1
  O  O262  1  0.12569783  0.38111252  0.52848644  1
  O  O263  1  0.12665322  0.36979467  0.79210337  1
  O  O264  1  0.12947213  0.62753058  0.03544228  1
  O  O265  1  0.12577377  0.62754354  0.30077988  1
  O  O266  1  0.12471491  0.62578869  0.54778227  1
  O  O267  1  0.12619037  0.63120531  0.78493179  1
  O  O268  1  0.12648928  0.87236809  0.04727958  1
  O  O269  1  0.12166154  0.87333516  0.30446918  1
  O  O270  1  0.11998594  0.87750334  0.53156424  1
  O  O271  1  0.12205574  0.87957585  0.79549407  1
  O  O272  1  0.37934067  0.12530550  0.03684209  1
  O  O273  1  0.37377424  0.12668204  0.30204702  1
  O  O274  1  0.38105032  0.13150898  0.53911661  1
  O  O275  1  0.37600733  0.12431254  0.77999773  1
  O  O276  1  0.37387929  0.37791456  0.04811910  1
  O  O277  1  0.37500663  0.37645989  0.30117861  1
  O  O278  1  0.38065442  0.37976347  0.55034893  1
  O  O279  1  0.37127690  0.37149623  0.79291384  1
  O  O280  1  0.37089891  0.62339444  0.04624486  1
  O  O281  1  0.37454064  0.62438936  0.29947470  1
  O  O282  1  0.37832189  0.62132520  0.55511880  1
  O  O283  1  0.36615606  0.62268144  0.77969778  1
  O  O284  1  0.37047157  0.87323047  0.04645330  1
  O  O285  1  0.37402568  0.86743215  0.29175327  1
  O  O286  1  0.38149937  0.86983174  0.53204486  1
  O  O287  1  0.37650554  0.87916219  0.79313459  1
  O  O288  1  0.61091668  0.12837859  0.03326354  1
  O  O289  1  0.62075275  0.12438069  0.29486220  1
  O  O290  1  0.63128000  0.12318339  0.54990039  1
  O  O291  1  0.62713625  0.12384291  0.80173547  1
  O  O292  1  0.62165170  0.37716477  0.04683132  1
  O  O293  1  0.61627735  0.37901765  0.28654779  1
  O  O294  1  0.62065996  0.37609891  0.55392363  1
  O  O295  1  0.62101673  0.36624205  0.78050137  1
  O  O296  1  0.61887295  0.62574024  0.03081125  1
  O  O297  1  0.62311278  0.62297934  0.29785309  1
  O  O298  1  0.62490845  0.62612298  0.55636588  1
  O  O299  1  0.62067189  0.63208004  0.78282896  1
  O  O300  1  0.62553359  0.86947998  0.02431467  1
  O  O301  1  0.62053810  0.86863136  0.28510741  1
  O  O302  1  0.63239873  0.87686560  0.55063411  1
  O  O303  1  0.63232249  0.87509656  0.79418725  1
  O  O304  1  0.87955146  0.13159577  0.03660315  1
  O  O305  1  0.87696815  0.12609326  0.28119913  1
  O  O306  1  0.86464169  0.11594674  0.54854297  1
  O  O307  1  0.87496558  0.12361660  0.80062553  1
  O  O308  1  0.88060157  0.37088027  0.03402527  1
  O  O309  1  0.87456831  0.38456642  0.28321341  1
  O  O310  1  0.87232908  0.36876341  0.54034926  1
  O  O311  1  0.87384901  0.36851733  0.77761822  1
  O  O312  1  0.88011394  0.62162531  0.04617503  1
  O  O313  1  0.87949252  0.62076640  0.28784013  1
  O  O314  1  0.86805341  0.63319345  0.54256492  1
  O  O315  1  0.88306260  0.62704333  0.77471124  1
  O  O316  1  0.88192140  0.87982604  0.02887414  1
  O  O317  1  0.87716747  0.87295523  0.29767823  1
  O  O318  1  0.86881507  0.87881837  0.55132891  1
  O  O319  1  0.87846540  0.88111563  0.80336539  1
