# generated using pymatgen
data_VFe(PbO3)2
_symmetry_space_group_name_H-M   'P 1'
_cell_length_a   15.38181149
_cell_length_b   15.38486622
_cell_length_c   18.45822426
_cell_angle_alpha   90.01353315
_cell_angle_beta   90.01349166
_cell_angle_gamma   90.01104056
_symmetry_Int_Tables_number   1
_chemical_formula_structural   VFe(PbO3)2
_chemical_formula_sum   'V32 Fe32 Pb64 O192'
_cell_volume   4368.08514103
_cell_formula_units_Z   32
loop_
 _symmetry_equiv_pos_site_id
 _symmetry_equiv_pos_as_xyz
  1  'x, y, z'
loop_
 _atom_site_type_symbol
 _atom_site_label
 _atom_site_symmetry_multiplicity
 _atom_site_fract_x
 _atom_site_fract_y
 _atom_site_fract_z
 _atom_site_occupancy
  V  V0  1  0.37647006  0.87662014  0.14215669  1
  V  V1  1  0.12472699  0.12765990  0.89108577  1
  V  V2  1  0.62426994  0.87330944  0.89353175  1
  V  V3  1  0.62754026  0.87111770  0.63833885  1
  V  V4  1  0.62754344  0.62697669  0.63878127  1
  V  V5  1  0.12397468  0.62175532  0.89594113  1
  V  V6  1  0.87299904  0.37304077  0.14377857  1
  V  V7  1  0.37526242  0.12584638  0.14079055  1
  V  V8  1  0.87748373  0.37357423  0.89544803  1
  V  V9  1  0.87627583  0.12424744  0.89107992  1
  V  V10  1  0.62535388  0.88185219  0.14164256  1
  V  V11  1  0.87331848  0.37443748  0.63785023  1
  V  V12  1  0.37563156  0.87454243  0.64055966  1
  V  V13  1  0.37646520  0.37379338  0.14392063  1
  V  V14  1  0.12720559  0.62729608  0.63714906  1
  V  V15  1  0.37351506  0.12579879  0.88974746  1
  V  V16  1  0.37386206  0.37444672  0.89170787  1
  V  V17  1  0.37400338  0.12327230  0.38865661  1
  V  V18  1  0.62235463  0.87600646  0.38115854  1
  V  V19  1  0.87446657  0.12382654  0.14386201  1
  V  V20  1  0.62398291  0.63326848  0.14777928  1
  V  V21  1  0.12405782  0.62549243  0.37781573  1
  V  V22  1  0.37442279  0.62469489  0.89432338  1
  V  V23  1  0.87268036  0.87561643  0.14403347  1
  V  V24  1  0.62436562  0.37781159  0.89272341  1
  V  V25  1  0.87779949  0.62465136  0.64046209  1
  V  V26  1  0.62407608  0.62489007  0.89299943  1
  V  V27  1  0.62639135  0.37361479  0.14096338  1
  V  V28  1  0.12510564  0.12214223  0.63404311  1
  V  V29  1  0.62717701  0.37907490  0.63778999  1
  V  V30  1  0.62301265  0.37371176  0.38376402  1
  V  V31  1  0.12284419  0.37269115  0.14313818  1
  Fe  Fe32  1  0.87621341  0.87227496  0.63272660  1
  Fe  Fe33  1  0.12629137  0.87212862  0.63290500  1
  Fe  Fe34  1  0.12224407  0.37803935  0.62977149  1
  Fe  Fe35  1  0.37766668  0.37338522  0.38897026  1
  Fe  Fe36  1  0.37502533  0.62315310  0.14606712  1
  Fe  Fe37  1  0.62542068  0.12267302  0.63915644  1
  Fe  Fe38  1  0.12599540  0.37541314  0.88875263  1
  Fe  Fe39  1  0.37598222  0.62674160  0.63422492  1
  Fe  Fe40  1  0.62319203  0.12452239  0.37877943  1
  Fe  Fe41  1  0.87386132  0.87355213  0.37685167  1
  Fe  Fe42  1  0.62492073  0.12688701  0.88444043  1
  Fe  Fe43  1  0.37384681  0.12501973  0.63338372  1
  Fe  Fe44  1  0.12600554  0.12757947  0.14875972  1
  Fe  Fe45  1  0.87578467  0.62501645  0.37447152  1
  Fe  Fe46  1  0.12630702  0.12438364  0.37644673  1
  Fe  Fe47  1  0.37449319  0.62626060  0.37596450  1
  Fe  Fe48  1  0.37516674  0.37719176  0.62832653  1
  Fe  Fe49  1  0.87339361  0.62529355  0.89533789  1
  Fe  Fe50  1  0.62347210  0.12807397  0.14826868  1
  Fe  Fe51  1  0.12638965  0.87380642  0.37426676  1
  Fe  Fe52  1  0.12569626  0.37527232  0.38547855  1
  Fe  Fe53  1  0.37503344  0.87629872  0.89167179  1
  Fe  Fe54  1  0.62521834  0.62587010  0.37601347  1
  Fe  Fe55  1  0.12700061  0.87574044  0.89320147  1
  Fe  Fe56  1  0.87383046  0.12560772  0.38529749  1
  Fe  Fe57  1  0.87553503  0.87625283  0.89035625  1
  Fe  Fe58  1  0.87277380  0.37497852  0.37804660  1
  Fe  Fe59  1  0.12442231  0.87549142  0.14343907  1
  Fe  Fe60  1  0.37783973  0.87674565  0.37813051  1
  Fe  Fe61  1  0.12562566  0.62240249  0.13651165  1
  Fe  Fe62  1  0.87431834  0.62231365  0.14199539  1
  Fe  Fe63  1  0.87676167  0.12380925  0.62997413  1
  Pb  Pb64  1  0.01052254  -0.00533640  0.00842596  1
  Pb  Pb65  1  0.00756628  0.00094055  0.25451329  1
  Pb  Pb66  1  -0.00311272  -0.00339149  0.48608652  1
  Pb  Pb67  1  -0.00060985  -0.00835877  0.74461264  1
  Pb  Pb68  1  0.00566064  0.24234830  0.00812505  1
  Pb  Pb69  1  -0.00839555  0.25017305  0.25851128  1
  Pb  Pb70  1  0.00075907  0.24810161  0.48671306  1
  Pb  Pb71  1  0.00802362  0.25439470  0.74624422  1
  Pb  Pb72  1  -0.00000026  0.50905664  0.00947258  1
  Pb  Pb73  1  -0.00268603  0.49673773  0.25005261  1
  Pb  Pb74  1  0.00309646  0.49640904  0.48946109  1
  Pb  Pb75  1  0.00405867  0.50044337  0.75204652  1
  Pb  Pb76  1  0.00410214  0.75223590  0.00376334  1
  Pb  Pb77  1  0.00100377  0.74732025  0.24407255  1
  Pb  Pb78  1  -0.00216186  0.76148728  0.49091771  1
  Pb  Pb79  1  -0.00115012  0.75625235  0.75247161  1
  Pb  Pb80  1  0.24122020  -0.00406789  0.00807655  1
  Pb  Pb81  1  0.24091652  -0.00084399  0.25222348  1
  Pb  Pb82  1  0.24231664  -0.00782503  0.49135109  1
  Pb  Pb83  1  0.24719615  -0.00837752  0.75250169  1
  Pb  Pb84  1  0.24489389  0.24495706  0.00485530  1
  Pb  Pb85  1  0.24813286  0.26075725  0.26105657  1
  Pb  Pb86  1  0.24941901  0.25658984  0.49520161  1
  Pb  Pb87  1  0.24850501  0.25616388  0.74009804  1
  Pb  Pb88  1  0.25058422  0.50879726  0.00850252  1
  Pb  Pb89  1  0.25028880  0.49126385  0.25504102  1
  Pb  Pb90  1  0.25528296  0.49620992  0.49386966  1
  Pb  Pb91  1  0.24910271  0.49577118  0.74385666  1
  Pb  Pb92  1  0.24441551  0.74991772  0.00726110  1
  Pb  Pb93  1  0.24951167  0.74623718  0.24431949  1
  Pb  Pb94  1  0.24929305  0.75185947  0.48780179  1
  Pb  Pb95  1  0.24944343  0.76043349  0.75734496  1
  Pb  Pb96  1  0.50579263  0.00920319  0.00270010  1
  Pb  Pb97  1  0.49719470  -0.00000898  0.25437701  1
  Pb  Pb98  1  0.50208552  0.00872941  0.50100119  1
  Pb  Pb99  1  0.50199508  0.00385664  0.75022121  1
  Pb  Pb100  1  0.50503740  0.24722916  0.00214090  1
  Pb  Pb101  1  0.49621950  0.25224261  0.25629759  1
  Pb  Pb102  1  0.50088065  0.23945933  0.50272961  1
  Pb  Pb103  1  0.50046511  0.24673440  0.74543774  1
  Pb  Pb104  1  0.49377118  0.50489622  0.00772567  1
  Pb  Pb105  1  0.49973590  0.50455158  0.25603063  1
  Pb  Pb106  1  0.49070163  0.50567561  0.49314529  1
  Pb  Pb107  1  0.49826303  0.50160694  0.74521465  1
  Pb  Pb108  1  0.49282548  0.74606853  0.00704826  1
  Pb  Pb109  1  0.49224346  0.75155764  0.25595960  1
  Pb  Pb110  1  0.49411394  0.74308257  0.49029483  1
  Pb  Pb111  1  0.49653806  0.75474963  0.75146496  1
  Pb  Pb112  1  0.74403068  0.00798257  0.00285759  1
  Pb  Pb113  1  0.75826263  0.00722892  0.25876035  1
  Pb  Pb114  1  0.75611856  0.00279286  0.49373268  1
  Pb  Pb115  1  0.75669328  -0.00225587  0.74519595  1
  Pb  Pb116  1  0.74590020  0.24892888  0.00282640  1
  Pb  Pb117  1  0.75446480  0.24496143  0.25699068  1
  Pb  Pb118  1  0.75084233  0.23989061  0.49481947  1
  Pb  Pb119  1  0.74696401  0.24282737  0.74847914  1
  Pb  Pb120  1  0.75384903  0.50427582  0.00811220  1
  Pb  Pb121  1  0.74779732  0.50512836  0.25371577  1
  Pb  Pb122  1  0.75028998  0.50357813  0.48606790  1
  Pb  Pb123  1  0.75772644  0.50676218  0.75444207  1
  Pb  Pb124  1  0.75729226  0.74807560  0.00583725  1
  Pb  Pb125  1  0.75790360  0.75157085  0.25519959  1
  Pb  Pb126  1  0.75591433  0.75301992  0.48961893  1
  Pb  Pb127  1  0.76443623  0.74892989  0.75791285  1
  O  O128  1  0.12469975  0.00092007  0.16338395  1
  O  O129  1  0.12807998  -0.00047442  0.40552012  1
  O  O130  1  0.12671786  0.00405370  0.66068450  1
  O  O131  1  0.12543629  0.00820337  0.91911410  1
  O  O132  1  0.12731177  0.25733932  0.16817888  1
  O  O133  1  0.12848917  0.24755288  0.40655866  1
  O  O134  1  0.12286378  0.24609937  0.65833478  1
  O  O135  1  0.12407374  0.24897261  0.92087201  1
  O  O136  1  0.12723405  0.49007845  0.16438375  1
  O  O137  1  0.12551431  0.50913763  0.40737241  1
  O  O138  1  0.11998734  0.50740505  0.66434414  1
  O  O139  1  0.12572919  0.50199651  0.91829600  1
  O  O140  1  0.12447423  0.74946381  0.16001634  1
  O  O141  1  0.12578299  0.74331829  0.40273059  1
  O  O142  1  0.12542651  0.74243775  0.66542643  1
  O  O143  1  0.12681443  0.74225596  0.91801003  1
  O  O144  1  0.38191379  0.00083156  0.16235171  1
  O  O145  1  0.37788918  0.00390173  0.41071249  1
  O  O146  1  0.37576363  -0.00772456  0.66429086  1
  O  O147  1  0.37477137  0.01012227  0.91502878  1
  O  O148  1  0.37438263  0.24854493  0.16557783  1
  O  O149  1  0.37767770  0.24219034  0.41171202  1
  O  O150  1  0.37667143  0.25263716  0.66161806  1
  O  O151  1  0.37599515  0.24668747  0.91709772  1
  O  O152  1  0.37651149  0.48983406  0.16424683  1
  O  O153  1  0.37720113  0.50210067  0.40603565  1
  O  O154  1  0.37745322  0.50153010  0.66603142  1
  O  O155  1  0.37697947  0.49972031  0.92021246  1
  O  O156  1  0.38208165  0.75737923  0.16038425  1
  O  O157  1  0.37773210  0.75125017  0.40700541  1
  O  O158  1  0.37658884  0.75427205  0.66683313  1
  O  O159  1  0.37622023  0.74568594  0.92046259  1
  O  O160  1  0.62336481  -0.00420298  0.16354700  1
  O  O161  1  0.62435832  -0.00585531  0.40627698  1
  O  O162  1  0.62289852  -0.01066958  0.66403476  1
  O  O163  1  0.62407983  -0.00225680  0.91448014  1
  O  O164  1  0.62062688  0.25776349  0.16713368  1
  O  O165  1  0.62340199  0.25492719  0.40727608  1
  O  O166  1  0.62869317  0.26124453  0.66280265  1
  O  O167  1  0.62433940  0.25386025  0.91799251  1
  O  O168  1  0.62152221  0.48916611  0.16535603  1
  O  O169  1  0.62502451  0.49439160  0.40755293  1
  O  O170  1  0.62974736  0.49932936  0.66622515  1
  O  O171  1  0.62372311  0.50019814  0.92074458  1
  O  O172  1  0.62493564  0.75082436  0.16255048  1
  O  O173  1  0.62402984  0.75613233  0.40335199  1
  O  O174  1  0.62302411  0.75273523  0.66690317  1
  O  O175  1  0.62330107  0.75194898  0.91936400  1
  O  O176  1  0.86869613  0.00172119  0.16531124  1
  O  O177  1  0.87114125  -0.00262967  0.40578604  1
  O  O178  1  0.87513577  -0.00135905  0.66268433  1
  O  O179  1  0.87333219  0.00938716  0.91487629  1
  O  O180  1  0.87444463  0.24764467  0.16530930  1
  O  O181  1  0.87193121  0.25257491  0.41121010  1
  O  O182  1  0.87484648  0.25812830  0.65979428  1
  O  O183  1  0.87309179  0.24994724  0.92012264  1
  O  O184  1  0.87279273  0.49237750  0.16380602  1
  O  O185  1  0.87282227  0.50051989  0.40464978  1
  O  O186  1  0.87388003  0.49861087  0.66895065  1
  O  O187  1  0.87179388  0.49181887  0.91885064  1
  O  O188  1  0.86677058  0.75597300  0.15768738  1
  O  O189  1  0.87326198  0.74871802  0.40649992  1
  O  O190  1  0.87421369  0.74565694  0.66779649  1
  O  O191  1  0.87286358  0.75138997  0.92211231  1
  O  O192  1  -0.00881859  0.12569552  0.16564837  1
  O  O193  1  0.00107634  0.12443680  0.40452855  1
  O  O194  1  0.00653984  0.12457124  0.66096776  1
  O  O195  1  -0.00393897  0.12967850  0.91698876  1
  O  O196  1  0.00301839  0.37240167  0.16159275  1
  O  O197  1  -0.00104830  0.37693711  0.40735383  1
  O  O198  1  -0.00738215  0.37862574  0.66203381  1
  O  O199  1  -0.00716383  0.37297095  0.91812342  1
  O  O200  1  -0.00019386  0.62135434  0.16246745  1
  O  O201  1  0.00587575  0.62520019  0.40235514  1
  O  O202  1  0.00087260  0.62549535  0.66757188  1
  O  O203  1  0.00431821  0.62181951  0.91644222  1
  O  O204  1  -0.01117079  0.87755533  0.15804255  1
  O  O205  1  0.00099737  0.87263041  0.40148219  1
  O  O206  1  0.00234587  0.87131477  0.66480927  1
  O  O207  1  0.00070851  0.87714931  0.92049842  1
  O  O208  1  0.26130736  0.12323323  0.16482939  1
  O  O209  1  0.25693397  0.12373075  0.40884514  1
  O  O210  1  0.24361032  0.12568501  0.66115497  1
  O  O211  1  0.25257670  0.12924344  0.91483263  1
  O  O212  1  0.25336132  0.37199520  0.16498146  1
  O  O213  1  0.25113705  0.37588538  0.41277243  1
  O  O214  1  0.24743533  0.37847939  0.65982500  1
  O  O215  1  0.25535250  0.37393423  0.91720262  1
  O  O216  1  0.24992959  0.62315520  0.16432705  1
  O  O217  1  0.24425001  0.62610406  0.40079907  1
  O  O218  1  0.24385208  0.62267905  0.65905081  1
  O  O219  1  0.24927778  0.62229603  0.91936768  1
  O  O220  1  0.26043188  0.87728718  0.15736782  1
  O  O221  1  0.25178886  0.87347899  0.40472233  1
  O  O222  1  0.25514587  0.87277374  0.66468134  1
  O  O223  1  0.25201277  0.87631004  0.92468613  1
  O  O224  1  0.49148715  0.12759991  0.16816565  1
  O  O225  1  0.49780370  0.12381065  0.41242735  1
  O  O226  1  0.49963590  0.12394212  0.66898317  1
  O  O227  1  0.49521628  0.12744972  0.91315765  1
  O  O228  1  0.49668565  0.37104871  0.16505243  1
  O  O229  1  0.50756489  0.37448176  0.41102084  1
  O  O230  1  0.50960379  0.37983358  0.65864940  1
  O  O231  1  0.49858646  0.37439568  0.91962973  1
  O  O232  1  0.50695424  0.62012920  0.16550162  1
  O  O233  1  0.50242130  0.62559042  0.40580484  1
  O  O234  1  0.50652537  0.62541174  0.66762181  1
  O  O235  1  0.50100830  0.62418293  0.92191935  1
  O  O236  1  0.50590349  0.87503673  0.16531042  1
  O  O237  1  0.50627576  0.87609609  0.40901515  1
  O  O238  1  0.49976886  0.87241095  0.66559265  1
  O  O239  1  0.50565472  0.87599783  0.91940101  1
  O  O240  1  0.75455609  0.12753902  0.16529368  1
  O  O241  1  0.74555777  0.12477058  0.41009455  1
  O  O242  1  0.75157745  0.12632644  0.66459121  1
  O  O243  1  0.75488337  0.12883324  0.91371609  1
  O  O244  1  0.74444676  0.37170828  0.16144462  1
  O  O245  1  0.74205175  0.37482808  0.40837580  1
  O  O246  1  0.75306231  0.37872311  0.66682439  1
  O  O247  1  0.75068519  0.37304377  0.92117657  1
  O  O248  1  0.74167386  0.61855339  0.16326970  1
  O  O249  1  0.74848857  0.62560557  0.40590069  1
  O  O250  1  0.75018445  0.62470022  0.66861904  1
  O  O251  1  0.74347861  0.62370168  0.92244232  1
  O  O252  1  0.74325117  0.87596943  0.16581839  1
  O  O253  1  0.74150597  0.87381835  0.40714506  1
  O  O254  1  0.74362125  0.87173894  0.66067234  1
  O  O255  1  0.74158785  0.87652040  0.91990895  1
  O  O256  1  0.12472383  0.13362820  0.04601543  1
  O  O257  1  0.12779711  0.11796860  0.27374098  1
  O  O258  1  0.12593735  0.12095161  0.54324873  1
  O  O259  1  0.12299861  0.12858724  0.79996226  1
  O  O260  1  0.12627419  0.37139954  0.05116795  1
  O  O261  1  0.13401338  0.37864393  0.28360187  1
  O  O262  1  0.12234251  0.38203353  0.53013409  1
  O  O263  1  0.11857033  0.37406471  0.78901077  1
  O  O264  1  0.12604568  0.61689755  0.03492796  1
  O  O265  1  0.12278692  0.62347168  0.28572804  1
  O  O266  1  0.12190211  0.62822208  0.54648944  1
  O  O267  1  0.12612119  0.62226423  0.80483223  1
  O  O268  1  0.12512722  0.88087779  0.03946079  1
  O  O269  1  0.12517530  0.87780966  0.27137778  1
  O  O270  1  0.12884273  0.86926279  0.53342325  1
  O  O271  1  0.13543671  0.87527408  0.79171768  1
  O  O272  1  0.37693356  0.12648821  0.04915022  1
  O  O273  1  0.37779925  0.12366140  0.29673089  1
  O  O274  1  0.38598175  0.12276799  0.53439715  1
  O  O275  1  0.37313653  0.12680425  0.79851350  1
  O  O276  1  0.37580177  0.37137589  0.05249075  1
  O  O277  1  0.37157279  0.36659102  0.28680310  1
  O  O278  1  0.37349572  0.38073976  0.52785529  1
  O  O279  1  0.37605361  0.37627235  0.80057858  1
  O  O280  1  0.38066682  0.61978042  0.04361479  1
  O  O281  1  0.38140188  0.62920711  0.27317558  1
  O  O282  1  0.38330004  0.62684679  0.53498143  1
  O  O283  1  0.37531560  0.62433790  0.80308930  1
  O  O284  1  0.38421922  0.87873053  0.05056793  1
  O  O285  1  0.38607763  0.87660636  0.27758473  1
  O  O286  1  0.37660023  0.87330112  0.54973789  1
  O  O287  1  0.36957872  0.87163332  0.79171288  1
  O  O288  1  0.62108581  0.12476651  0.04586737  1
  O  O289  1  0.62383240  0.12615422  0.27709884  1
  O  O290  1  0.61653794  0.12535428  0.53859629  1
  O  O291  1  0.62438721  0.13018720  0.78464026  1
  O  O292  1  0.62313376  0.37209023  0.04909534  1
  O  O293  1  0.62111027  0.37461956  0.29186905  1
  O  O294  1  0.63216131  0.37988981  0.54749044  1
  O  O295  1  0.62588135  0.37786537  0.80179751  1
  O  O296  1  0.62280143  0.62438942  0.05571812  1
  O  O297  1  0.62537526  0.61539242  0.27453039  1
  O  O298  1  0.62782719  0.62640984  0.54760578  1
  O  O299  1  0.62452445  0.62519975  0.80206010  1
  O  O300  1  0.62515591  0.87943347  0.05012737  1
  O  O301  1  0.62165594  0.87731214  0.28921440  1
  O  O302  1  0.62332477  0.86975571  0.54783298  1
  O  O303  1  0.62447555  0.87082069  0.80252991  1
  O  O304  1  0.87443028  0.12331255  0.05205643  1
  O  O305  1  0.86799271  0.12994443  0.28243096  1
  O  O306  1  0.87087192  0.12364757  0.52998032  1
  O  O307  1  0.87875708  0.12766813  0.80011360  1
  O  O308  1  0.87358760  0.37071214  0.05180176  1
  O  O309  1  0.87675828  0.36640162  0.27666033  1
  O  O310  1  0.86997512  0.37941262  0.54741540  1
  O  O311  1  0.87483120  0.37187972  0.80433907  1
  O  O312  1  0.87086861  0.61751128  0.03917099  1
  O  O313  1  0.86980249  0.62717737  0.27240557  1
  O  O314  1  0.87741959  0.62364580  0.54953346  1
  O  O315  1  0.86606879  0.62482954  0.79482861  1
  O  O316  1  0.86394123  0.88275445  0.05244026  1
  O  O317  1  0.86507402  0.87271652  0.27523560  1
  O  O318  1  0.87534226  0.86628631  0.53273799  1
  O  O319  1  0.87235695  0.87106177  0.78996547  1
