# generated using pymatgen
data_VFe(PbO3)2
_symmetry_space_group_name_H-M   'P 1'
_cell_length_a   15.38957327
_cell_length_b   15.39432138
_cell_length_c   18.48568785
_cell_angle_alpha   90.04681773
_cell_angle_beta   90.04029308
_cell_angle_gamma   90.01020021
_symmetry_Int_Tables_number   1
_chemical_formula_structural   VFe(PbO3)2
_chemical_formula_sum   'V32 Fe32 Pb64 O192'
_cell_volume   4379.47934716
_cell_formula_units_Z   32
loop_
 _symmetry_equiv_pos_site_id
 _symmetry_equiv_pos_as_xyz
  1  'x, y, z'
loop_
 _atom_site_type_symbol
 _atom_site_label
 _atom_site_symmetry_multiplicity
 _atom_site_fract_x
 _atom_site_fract_y
 _atom_site_fract_z
 _atom_site_occupancy
  V  V0  1  0.87259274  0.87319513  0.63863817  1
  V  V1  1  0.62553408  0.12602404  0.64503493  1
  V  V2  1  0.38001930  0.87670947  0.63668531  1
  V  V3  1  0.87564909  0.37515233  0.65640900  1
  V  V4  1  0.12585936  0.87473989  0.14011810  1
  V  V5  1  0.62512975  0.12311240  0.13320449  1
  V  V6  1  0.62773461  0.12530175  0.38634744  1
  V  V7  1  0.12413510  0.12784711  0.13665920  1
  V  V8  1  0.87418949  0.37712104  0.39051586  1
  V  V9  1  0.37207255  0.38046827  0.89003354  1
  V  V10  1  0.12599067  0.12601332  0.63861106  1
  V  V11  1  0.12628579  0.37317869  0.64417887  1
  V  V12  1  0.37923889  0.37335904  0.64141013  1
  V  V13  1  0.62957964  0.87913466  0.88992444  1
  V  V14  1  0.62648800  0.37432159  0.65044920  1
  V  V15  1  0.37598754  0.87051032  0.39254242  1
  V  V16  1  0.87585725  0.12628070  0.64438323  1
  V  V17  1  0.62614139  0.62280384  0.39103666  1
  V  V18  1  0.62511646  0.87285433  0.39381318  1
  V  V19  1  0.12246156  0.62798260  0.13450142  1
  V  V20  1  0.87451529  0.12348727  0.38896290  1
  V  V21  1  0.12424364  0.87323258  0.39698344  1
  V  V22  1  0.62695598  0.37707449  0.38747955  1
  V  V23  1  0.87379858  0.62530454  0.39393157  1
  V  V24  1  0.87757352  0.62536526  0.13243058  1
  V  V25  1  0.12675481  0.12335752  0.89049118  1
  V  V26  1  0.37997485  0.87842632  0.88848004  1
  V  V27  1  0.62606505  0.62602442  0.64438137  1
  V  V28  1  0.13386114  0.87941167  0.88585027  1
  V  V29  1  0.37315289  0.12543109  0.89243258  1
  V  V30  1  0.88190519  0.87559631  0.88578724  1
  V  V31  1  0.12428688  0.62215297  0.39651131  1
  Fe  Fe32  1  0.62561989  0.62614447  0.12380033  1
  Fe  Fe33  1  0.37279488  0.37534643  0.12898860  1
  Fe  Fe34  1  0.62140284  0.12123863  0.88710112  1
  Fe  Fe35  1  0.37910120  0.62238187  0.64344675  1
  Fe  Fe36  1  0.37360188  0.12226608  0.13977914  1
  Fe  Fe37  1  0.87446249  0.62767048  0.87634500  1
  Fe  Fe38  1  0.12600625  0.62924480  0.87814864  1
  Fe  Fe39  1  0.12812504  0.37309802  0.88647376  1
  Fe  Fe40  1  0.12463752  0.37948877  0.12704012  1
  Fe  Fe41  1  0.37442488  0.37781483  0.38382378  1
  Fe  Fe42  1  0.87819189  0.87463321  0.13726176  1
  Fe  Fe43  1  0.62448803  0.37550057  0.12489301  1
  Fe  Fe44  1  0.37201375  0.62714723  0.12871578  1
  Fe  Fe45  1  0.12273076  0.12635723  0.38361392  1
  Fe  Fe46  1  0.12165661  0.37685421  0.38652909  1
  Fe  Fe47  1  0.62767905  0.87565054  0.63500345  1
  Fe  Fe48  1  0.37281302  0.62980836  0.88402843  1
  Fe  Fe49  1  0.87616714  0.37325076  0.88276507  1
  Fe  Fe50  1  0.62393609  0.62835156  0.89508008  1
  Fe  Fe51  1  0.12492201  0.62629182  0.64395444  1
  Fe  Fe52  1  0.87784406  0.37456330  0.12519812  1
  Fe  Fe53  1  0.37356968  0.87520846  0.13538917  1
  Fe  Fe54  1  0.62565806  0.87427836  0.13143854  1
  Fe  Fe55  1  0.87321104  0.62241783  0.65122263  1
  Fe  Fe56  1  0.12400662  0.87949576  0.63524896  1
  Fe  Fe57  1  0.37469951  0.62593594  0.38871158  1
  Fe  Fe58  1  0.87675721  0.12418083  0.12625397  1
  Fe  Fe59  1  0.87455044  0.87201288  0.38577759  1
  Fe  Fe60  1  0.37544461  0.12470866  0.38471462  1
  Fe  Fe61  1  0.37694742  0.12781978  0.63335565  1
  Fe  Fe62  1  0.62047490  0.37133916  0.88843313  1
  Fe  Fe63  1  0.87410549  0.12085163  0.89420649  1
  Pb  Pb64  1  -0.00738791  -0.00205385  0.00418728  1
  Pb  Pb65  1  0.00210527  0.00462194  0.24890730  1
  Pb  Pb66  1  0.00042181  -0.00602362  0.50034101  1
  Pb  Pb67  1  -0.00641086  0.00683297  0.75245231  1
  Pb  Pb68  1  -0.00900569  0.25772374  -0.00241266  1
  Pb  Pb69  1  0.00594484  0.25409639  0.24412396  1
  Pb  Pb70  1  0.00074219  0.25287624  0.49806053  1
  Pb  Pb71  1  0.00033757  0.25498530  0.76127144  1
  Pb  Pb72  1  0.00034799  0.49599271  -0.01616194  1
  Pb  Pb73  1  0.00632308  0.49279267  0.24483464  1
  Pb  Pb74  1  -0.00385141  0.51144195  0.51279053  1
  Pb  Pb75  1  0.00881301  0.50098810  0.75728581  1
  Pb  Pb76  1  -0.00260485  0.75020421  -0.00662243  1
  Pb  Pb77  1  -0.00388514  0.75322497  0.25263402  1
  Pb  Pb78  1  0.00444293  0.74486490  0.51090318  1
  Pb  Pb79  1  0.00471409  0.74459691  0.74737801  1
  Pb  Pb80  1  0.25751837  0.00049462  0.00868834  1
  Pb  Pb81  1  0.25104621  0.01044491  0.25467636  1
  Pb  Pb82  1  0.25012725  0.00176527  0.49887833  1
  Pb  Pb83  1  0.25483834  0.00009864  0.74525480  1
  Pb  Pb84  1  0.25189607  0.25742787  0.00726880  1
  Pb  Pb85  1  0.25209070  0.26162634  0.24835394  1
  Pb  Pb86  1  0.25209542  0.24877144  0.49062151  1
  Pb  Pb87  1  0.24844106  0.25702287  0.75231139  1
  Pb  Pb88  1  0.24601850  0.50168831  -0.00609515  1
  Pb  Pb89  1  0.26021078  0.49542932  0.24639097  1
  Pb  Pb90  1  0.25387030  0.50094127  0.50121711  1
  Pb  Pb91  1  0.25057372  0.50803710  0.75128083  1
  Pb  Pb92  1  0.25748758  0.74687158  -0.00095187  1
  Pb  Pb93  1  0.25711487  0.74280759  0.25034335  1
  Pb  Pb94  1  0.24146901  0.74560526  0.51127628  1
  Pb  Pb95  1  0.25267401  0.74560715  0.74599525  1
  Pb  Pb96  1  0.48978005  -0.00241499  0.00769318  1
  Pb  Pb97  1  0.49639491  0.00112652  0.24633799  1
  Pb  Pb98  1  0.49707438  0.00406923  0.50074413  1
  Pb  Pb99  1  0.50630181  0.00273234  0.75026803  1
  Pb  Pb100  1  0.49759084  0.25579243  0.00317480  1
  Pb  Pb101  1  0.49134086  0.25538661  0.24182625  1
  Pb  Pb102  1  0.49499041  0.24736096  0.49533390  1
  Pb  Pb103  1  0.50949665  0.24822587  0.75768124  1
  Pb  Pb104  1  0.50636600  0.50443381  -0.00161329  1
  Pb  Pb105  1  0.49463424  0.50216656  0.23594529  1
  Pb  Pb106  1  0.49376001  0.50269592  0.50157863  1
  Pb  Pb107  1  0.51122747  0.50043939  0.76179359  1
  Pb  Pb108  1  0.49788055  0.74313023  0.00230310  1
  Pb  Pb109  1  0.50035893  0.74494672  0.23787561  1
  Pb  Pb110  1  0.49535020  0.74396766  0.50601551  1
  Pb  Pb111  1  0.50182688  0.73930000  0.75798163  1
  Pb  Pb112  1  0.74982158  -0.00359349  0.00241119  1
  Pb  Pb113  1  0.75765265  -0.00524975  0.24345205  1
  Pb  Pb114  1  0.74575341  -0.00544806  0.50113159  1
  Pb  Pb115  1  0.75294123  0.00956890  0.75561922  1
  Pb  Pb116  1  0.74885423  0.25229350  -0.01097876  1
  Pb  Pb117  1  0.75373895  0.25110122  0.23427610  1
  Pb  Pb118  1  0.74890718  0.25143705  0.49947156  1
  Pb  Pb119  1  0.75791006  0.24740066  0.76458794  1
  Pb  Pb120  1  0.74932337  0.49762454  -0.01461094  1
  Pb  Pb121  1  0.74759864  0.49800160  0.23521232  1
  Pb  Pb122  1  0.75603433  0.50574120  0.50924512  1
  Pb  Pb123  1  0.74834238  0.49256861  0.76458304  1
  Pb  Pb124  1  0.74649955  0.75591551  0.00004767  1
  Pb  Pb125  1  0.75201810  0.75330424  0.24415170  1
  Pb  Pb126  1  0.74826234  0.75192866  0.50480306  1
  Pb  Pb127  1  0.74413046  0.73886170  0.75926784  1
  O  O128  1  0.12177790  -0.00605901  0.16139956  1
  O  O129  1  0.12407860  -0.00681733  0.41439787  1
  O  O130  1  0.12456724  0.00848934  0.66312821  1
  O  O131  1  0.12502895  -0.00628839  0.91897721  1
  O  O132  1  0.12284613  0.24422367  0.15338171  1
  O  O133  1  0.12004063  0.25100382  0.41632613  1
  O  O134  1  0.12383052  0.24486054  0.66719052  1
  O  O135  1  0.13223328  0.23724201  0.91005745  1
  O  O136  1  0.12030844  0.51053761  0.15486789  1
  O  O137  1  0.12186568  0.50667815  0.41800248  1
  O  O138  1  0.12492634  0.49282515  0.66651065  1
  O  O139  1  0.12929067  0.50174703  0.90377278  1
  O  O140  1  0.12157204  0.74894226  0.16587714  1
  O  O141  1  0.12287604  0.74884296  0.42238392  1
  O  O142  1  0.12397431  0.75687563  0.66328010  1
  O  O143  1  0.12424656  0.76422648  0.90768671  1
  O  O144  1  0.37161395  -0.00245529  0.17000121  1
  O  O145  1  0.37512453  -0.01057610  0.41478077  1
  O  O146  1  0.37761217  -0.00046628  0.66254344  1
  O  O147  1  0.37044893  -0.00353851  0.91742877  1
  O  O148  1  0.37234240  0.24816595  0.16070588  1
  O  O149  1  0.37841617  0.25176727  0.41166692  1
  O  O150  1  0.37714180  0.25460799  0.66552121  1
  O  O151  1  0.36881219  0.23990774  0.91165951  1
  O  O152  1  0.37007219  0.50235341  0.15679992  1
  O  O153  1  0.37645081  0.50215369  0.41904934  1
  O  O154  1  0.37647791  0.48959274  0.66675099  1
  O  O155  1  0.36997631  0.49663985  0.90166954  1
  O  O156  1  0.36936964  0.75067672  0.16416854  1
  O  O157  1  0.37450364  0.75376659  0.42087601  1
  O  O158  1  0.37922288  0.76009311  0.65998884  1
  O  O159  1  0.37091195  0.76250042  0.90923248  1
  O  O160  1  0.62727119  0.00618094  0.16169262  1
  O  O161  1  0.62704497  0.00006587  0.41582206  1
  O  O162  1  0.62676322  0.00622754  0.66303845  1
  O  O163  1  0.62006236  -0.00696288  0.91699717  1
  O  O164  1  0.62533694  0.24323052  0.15693288  1
  O  O165  1  0.62908216  0.25077726  0.41451926  1
  O  O166  1  0.62595454  0.24686364  0.67135352  1
  O  O167  1  0.61671374  0.24520702  0.91170099  1
  O  O168  1  0.62810840  0.50226513  0.15618478  1
  O  O169  1  0.62810256  0.50472580  0.41646749  1
  O  O170  1  0.62531821  0.50071360  0.67253598  1
  O  O171  1  0.61786974  0.49881066  0.90808634  1
  O  O172  1  0.62875091  0.74741868  0.16035280  1
  O  O173  1  0.62726288  0.74400352  0.41807387  1
  O  O174  1  0.62605824  0.74587800  0.66244153  1
  O  O175  1  0.62221511  0.76386809  0.91311910  1
  O  O176  1  0.87816872  0.00190720  0.16295797  1
  O  O177  1  0.87275495  0.00267918  0.41271768  1
  O  O178  1  0.87437753  0.00391591  0.66765831  1
  O  O179  1  0.87531108  -0.00990547  0.91523494  1
  O  O180  1  0.87831897  0.24791821  0.15649903  1
  O  O181  1  0.87196472  0.25085725  0.41765107  1
  O  O182  1  0.87386354  0.24641301  0.67229236  1
  O  O183  1  0.87781731  0.24644160  0.90936047  1
  O  O184  1  0.88011043  0.50838719  0.15606617  1
  O  O185  1  0.87243483  0.50137256  0.42317431  1
  O  O186  1  0.87323221  0.49117713  0.67397512  1
  O  O187  1  0.87657776  0.50153344  0.89897531  1
  O  O188  1  0.87927452  0.74243470  0.16400662  1
  O  O189  1  0.87394328  0.74453860  0.41787263  1
  O  O190  1  0.87319192  0.75878631  0.65672518  1
  O  O191  1  0.87258996  0.76051631  0.90952301  1
  O  O192  1  0.00674822  0.12080657  0.16128301  1
  O  O193  1  -0.00694726  0.12429794  0.41602766  1
  O  O194  1  0.00311434  0.12639448  0.66671034  1
  O  O195  1  0.01141330  0.11587627  0.91063167  1
  O  O196  1  0.00139319  0.37663755  0.16049320  1
  O  O197  1  -0.00758304  0.37813292  0.41997528  1
  O  O198  1  -0.00156932  0.36982822  0.67067014  1
  O  O199  1  0.00329125  0.37084258  0.90566653  1
  O  O200  1  0.00131251  0.62851034  0.16428706  1
  O  O201  1  0.00021642  0.62520072  0.42127426  1
  O  O202  1  -0.00095885  0.62284184  0.66883873  1
  O  O203  1  0.00008311  0.63363553  0.90438212  1
  O  O204  1  0.00737644  0.87128631  0.16880886  1
  O  O205  1  0.00364868  0.87244036  0.41612552  1
  O  O206  1  -0.00902972  0.88272509  0.66319341  1
  O  O207  1  -0.00069661  0.87721928  0.90551423  1
  O  O208  1  0.23981773  0.11877194  0.16210242  1
  O  O209  1  0.24888470  0.12175123  0.41245262  1
  O  O210  1  0.24478605  0.12695172  0.65822609  1
  O  O211  1  0.24922534  0.11366275  0.91746237  1
  O  O212  1  0.24587916  0.37472176  0.16021277  1
  O  O213  1  0.24798119  0.37840246  0.41728419  1
  O  O214  1  0.25405420  0.37045188  0.66412262  1
  O  O215  1  0.25573953  0.36821890  0.91447452  1
  O  O216  1  0.23851310  0.62920393  0.15718193  1
  O  O217  1  0.24276976  0.62754310  0.41810207  1
  O  O218  1  0.25341398  0.62502177  0.66238302  1
  O  O219  1  0.24806391  0.63260345  0.91073350  1
  O  O220  1  0.23944790  0.87324112  0.16687996  1
  O  O221  1  0.24945743  0.87105890  0.41880858  1
  O  O222  1  0.25831567  0.88035082  0.66027718  1
  O  O223  1  0.24869893  0.87989132  0.90915289  1
  O  O224  1  0.50700874  0.12299144  0.16184691  1
  O  O225  1  0.50639025  0.12312597  0.41333841  1
  O  O226  1  0.50603630  0.12695652  0.66380588  1
  O  O227  1  0.48826635  0.11654574  0.91375951  1
  O  O228  1  0.50054092  0.37467238  0.15839656  1
  O  O229  1  0.50849636  0.37756106  0.41234894  1
  O  O230  1  0.49734203  0.37307005  0.66881580  1
  O  O231  1  0.48691232  0.36791529  0.91098181  1
  O  O232  1  0.49942451  0.62609462  0.15352392  1
  O  O233  1  0.50815884  0.62587228  0.41458348  1
  O  O234  1  0.50784519  0.62347433  0.66930863  1
  O  O235  1  0.49529782  0.63216372  0.91241191  1
  O  O236  1  0.50053628  0.87555808  0.16207375  1
  O  O237  1  0.49636662  0.87163444  0.41547581  1
  O  O238  1  0.49844569  0.88042882  0.66033823  1
  O  O239  1  0.49492745  0.87946207  0.90835564  1
  O  O240  1  0.74580113  0.12462876  0.15545152  1
  O  O241  1  0.75090348  0.12619448  0.41941408  1
  O  O242  1  0.74804154  0.12675548  0.66931753  1
  O  O243  1  0.74644051  0.11873884  0.91327469  1
  O  O244  1  0.75184795  0.37579054  0.15539192  1
  O  O245  1  0.75024907  0.37705897  0.42234766  1
  O  O246  1  0.75079829  0.37166356  0.67526345  1
  O  O247  1  0.74851502  0.37235439  0.90306641  1
  O  O248  1  0.76018307  0.62558688  0.15247886  1
  O  O249  1  0.74686840  0.62368300  0.42067164  1
  O  O250  1  0.74168956  0.62248440  0.66944212  1
  O  O251  1  0.75202985  0.63008148  0.91031003  1
  O  O252  1  0.75158658  0.87385830  0.16526508  1
  O  O253  1  0.74791908  0.87217475  0.41827203  1
  O  O254  1  0.75659344  0.88262896  0.66428365  1
  O  O255  1  0.74878056  0.87833531  0.90645447  1
  O  O256  1  0.12403343  0.12103905  0.04556993  1
  O  O257  1  0.12048931  0.12343608  0.28420143  1
  O  O258  1  0.12014811  0.12676860  0.54765520  1
  O  O259  1  0.13151238  0.11855863  0.79911529  1
  O  O260  1  0.13020184  0.37577818  0.02611405  1
  O  O261  1  0.11688435  0.37646284  0.28647859  1
  O  O262  1  0.12217721  0.37147514  0.55321318  1
  O  O263  1  0.13008249  0.36424591  0.78466744  1
  O  O264  1  0.11835267  0.63348136  0.04331245  1
  O  O265  1  0.12160499  0.62569394  0.30585990  1
  O  O266  1  0.11821500  0.62926876  0.54154206  1
  O  O267  1  0.12845397  0.62878104  0.77622890  1
  O  O268  1  0.12442935  0.87132135  0.04892433  1
  O  O269  1  0.12680994  0.86803722  0.30640771  1
  O  O270  1  0.12243927  0.87688159  0.53505415  1
  O  O271  1  0.13298411  0.88556037  0.79439821  1
  O  O272  1  0.37367998  0.11238832  0.03864028  1
  O  O273  1  0.37524341  0.11847813  0.28436552  1
  O  O274  1  0.38429389  0.12411528  0.53387317  1
  O  O275  1  0.37086617  0.12139365  0.80075354  1
  O  O276  1  0.37108208  0.36958349  0.02779234  1
  O  O277  1  0.36852616  0.37819802  0.28335884  1
  O  O278  1  0.38126658  0.37486862  0.54995982  1
  O  O279  1  0.36947463  0.36776722  0.79897990  1
  O  O280  1  0.36900799  0.63521458  0.02776235  1
  O  O281  1  0.36891816  0.62569172  0.28908041  1
  O  O282  1  0.38712057  0.62296728  0.54226571  1
  O  O283  1  0.37585188  0.63425988  0.78110086  1
  O  O284  1  0.36949704  0.88107945  0.03460978  1
  O  O285  1  0.37240760  0.86762866  0.30198694  1
  O  O286  1  0.37918533  0.87790501  0.54505584  1
  O  O287  1  0.37548904  0.88283317  0.79718476  1
  O  O288  1  0.62124463  0.12002127  0.04205192  1
  O  O289  1  0.63072249  0.12517783  0.29601225  1
  O  O290  1  0.62870631  0.12997004  0.55390544  1
  O  O291  1  0.61809699  0.11773017  0.78616904  1
  O  O292  1  0.61656505  0.37403131  0.02426436  1
  O  O293  1  0.63323171  0.37876390  0.29697430  1
  O  O294  1  0.62641058  0.37548224  0.55946558  1
  O  O295  1  0.61482750  0.37456689  0.78488784  1
  O  O296  1  0.62105352  0.62862584  0.02190888  1
  O  O297  1  0.62924280  0.62288722  0.30055906  1
  O  O298  1  0.62593531  0.62106441  0.55287519  1
  O  O299  1  0.62225771  0.63577574  0.79170039  1
  O  O300  1  0.63445955  0.87501146  0.03176955  1
  O  O301  1  0.62509043  0.87207723  0.30301606  1
  O  O302  1  0.63265067  0.87416471  0.53530413  1
  O  O303  1  0.62322294  0.88058887  0.79791284  1
  O  O304  1  0.88265757  0.11758813  0.02527900  1
  O  O305  1  0.87438776  0.12784556  0.29812948  1
  O  O306  1  0.87411094  0.12587555  0.55334139  1
  O  O307  1  0.87415637  0.11495565  0.79121736  1
  O  O308  1  0.88171608  0.37445271  0.02487151  1
  O  O309  1  0.87340665  0.37852710  0.29961142  1
  O  O310  1  0.87224575  0.37232727  0.56498989  1
  O  O311  1  0.87590597  0.36350836  0.77942887  1
  O  O312  1  0.88407246  0.63103888  0.04158848  1
  O  O313  1  0.87348156  0.62030206  0.30333906  1
  O  O314  1  0.87221495  0.61294457  0.54876476  1
  O  O315  1  0.86750832  0.63597383  0.77446238  1
  O  O316  1  0.87878086  0.87310004  0.03711917  1
  O  O317  1  0.87363819  0.86800067  0.28638913  1
  O  O318  1  0.87275423  0.88034330  0.54660538  1
  O  O319  1  0.87772557  0.87833334  0.79461615  1
