# generated using pymatgen
data_VFe(PbO3)2
_symmetry_space_group_name_H-M   'P 1'
_cell_length_a   15.39258339
_cell_length_b   15.38100215
_cell_length_c   18.54519488
_cell_angle_alpha   89.98745299
_cell_angle_beta   89.97888404
_cell_angle_gamma   90.00979695
_symmetry_Int_Tables_number   1
_chemical_formula_structural   VFe(PbO3)2
_chemical_formula_sum   'V32 Fe32 Pb64 O192'
_cell_volume   4390.63669956
_cell_formula_units_Z   32
loop_
 _symmetry_equiv_pos_site_id
 _symmetry_equiv_pos_as_xyz
  1  'x, y, z'
loop_
 _atom_site_type_symbol
 _atom_site_label
 _atom_site_symmetry_multiplicity
 _atom_site_fract_x
 _atom_site_fract_y
 _atom_site_fract_z
 _atom_site_occupancy
  V  V0  1  0.62616554  0.37900568  0.13858452  1
  V  V1  1  0.37603913  0.87536028  0.89576412  1
  V  V2  1  0.36826332  0.62524534  0.39085217  1
  V  V3  1  0.37450483  0.62151301  0.13699731  1
  V  V4  1  0.62303945  0.37926120  0.88729888  1
  V  V5  1  0.12607037  0.12667542  0.64191366  1
  V  V6  1  0.37337177  0.87469564  0.63786384  1
  V  V7  1  0.87277847  0.62784774  0.88782822  1
  V  V8  1  0.37584427  0.12381901  0.89469204  1
  V  V9  1  0.37176679  0.12111983  0.63521971  1
  V  V10  1  0.87513979  0.87741968  0.89071856  1
  V  V11  1  0.62827995  0.87326483  0.38693816  1
  V  V12  1  0.87610959  0.37608693  0.38916372  1
  V  V13  1  0.37372129  0.62232926  0.64204399  1
  V  V14  1  0.12519125  0.12336606  0.89310490  1
  V  V15  1  0.87663806  0.87662628  0.63902980  1
  V  V16  1  0.37399834  0.36966165  0.63893266  1
  V  V17  1  0.62350520  0.62989137  0.88483207  1
  V  V18  1  0.62661044  0.37557673  0.39158901  1
  V  V19  1  0.12733472  0.87133809  0.38327630  1
  V  V20  1  0.62835588  0.87591974  0.14116492  1
  V  V21  1  0.62496167  0.87953030  0.63841730  1
  V  V22  1  0.62655202  0.87782295  0.89033463  1
  V  V23  1  0.12095675  0.37718626  0.13520391  1
  V  V24  1  0.62480954  0.62502083  0.39362458  1
  V  V25  1  0.37593694  0.37551911  0.14200236  1
  V  V26  1  0.62254362  0.62421055  0.14262995  1
  V  V27  1  0.87740437  0.12533633  0.64017705  1
  V  V28  1  0.87736437  0.87340747  0.38726728  1
  V  V29  1  0.87569328  0.87108683  0.13538585  1
  V  V30  1  0.87612405  0.37570238  0.64107121  1
  V  V31  1  0.62337698  0.12540854  0.89311121  1
  Fe  Fe32  1  0.87460319  0.62677796  0.63463114  1
  Fe  Fe33  1  0.37696063  0.37085269  0.88433482  1
  Fe  Fe34  1  0.62438989  0.62453708  0.63656415  1
  Fe  Fe35  1  0.37369107  0.12490697  0.37760365  1
  Fe  Fe36  1  0.62469895  0.37296740  0.63542084  1
  Fe  Fe37  1  0.37721752  0.86941116  0.37952661  1
  Fe  Fe38  1  0.87568750  0.12756607  0.38540218  1
  Fe  Fe39  1  0.12542907  0.62281198  0.12994169  1
  Fe  Fe40  1  0.87296355  0.62372930  0.39315436  1
  Fe  Fe41  1  0.12450299  0.37772937  0.38182123  1
  Fe  Fe42  1  0.62522797  0.12812929  0.14069897  1
  Fe  Fe43  1  0.12627071  0.87653068  0.89774243  1
  Fe  Fe44  1  0.12335116  0.62877901  0.64412490  1
  Fe  Fe45  1  0.12224692  0.62530834  0.38492095  1
  Fe  Fe46  1  0.87311580  0.62241411  0.13313824  1
  Fe  Fe47  1  0.12581185  0.87121423  0.12783921  1
  Fe  Fe48  1  0.62457337  0.12655225  0.63498767  1
  Fe  Fe49  1  0.12409211  0.37352626  0.64603371  1
  Fe  Fe50  1  0.87363719  0.37775610  0.12481837  1
  Fe  Fe51  1  0.12506385  0.87923264  0.63755435  1
  Fe  Fe52  1  0.37538447  0.37847595  0.38484774  1
  Fe  Fe53  1  0.62827667  0.12507116  0.38067265  1
  Fe  Fe54  1  0.12774663  0.37298113  0.87959177  1
  Fe  Fe55  1  0.37899902  0.87038902  0.14026213  1
  Fe  Fe56  1  0.87268868  0.37375112  0.89335279  1
  Fe  Fe57  1  0.12831476  0.62649940  0.88463575  1
  Fe  Fe58  1  0.87456464  0.12194727  0.89552017  1
  Fe  Fe59  1  0.87285641  0.12735805  0.12738829  1
  Fe  Fe60  1  0.12563881  0.12527252  0.13921269  1
  Fe  Fe61  1  0.38018568  0.62565959  0.88180555  1
  Fe  Fe62  1  0.12081993  0.12612808  0.37603097  1
  Fe  Fe63  1  0.37622478  0.12576493  0.14138701  1
  Pb  Pb64  1  0.01673791  0.00554084  0.01036471  1
  Pb  Pb65  1  0.00212790  0.00566484  0.24146512  1
  Pb  Pb66  1  0.00416989  -0.00464264  0.49363185  1
  Pb  Pb67  1  -0.00131301  0.00383354  0.75481960  1
  Pb  Pb68  1  -0.00594054  0.25210364  -0.00362829  1
  Pb  Pb69  1  -0.00546994  0.24162241  0.24403207  1
  Pb  Pb70  1  0.00818481  0.25324478  0.49566442  1
  Pb  Pb71  1  -0.01355950  0.25554610  0.76213175  1
  Pb  Pb72  1  0.00167106  0.49887975  -0.00938292  1
  Pb  Pb73  1  0.00588801  0.50257554  0.24618336  1
  Pb  Pb74  1  0.00323607  0.50544784  0.50124476  1
  Pb  Pb75  1  0.00585973  0.50301106  0.75000608  1
  Pb  Pb76  1  0.00922221  0.74464817  0.00205498  1
  Pb  Pb77  1  0.00404294  0.73369604  0.24597677  1
  Pb  Pb78  1  0.00089096  0.73926989  0.50533554  1
  Pb  Pb79  1  0.01058553  0.75013663  0.75385570  1
  Pb  Pb80  1  0.25463464  0.00744069  0.01297798  1
  Pb  Pb81  1  0.25235581  -0.00024413  0.24018211  1
  Pb  Pb82  1  0.24990831  -0.00024650  0.48643188  1
  Pb  Pb83  1  0.24171916  -0.00457908  0.75604139  1
  Pb  Pb84  1  0.25031711  0.24453258  0.00218918  1
  Pb  Pb85  1  0.24526919  0.24857326  0.25033960  1
  Pb  Pb86  1  0.24757135  0.25155154  0.48788528  1
  Pb  Pb87  1  0.25119565  0.25752895  0.75457772  1
  Pb  Pb88  1  0.24884583  0.50023104  -0.01341081  1
  Pb  Pb89  1  0.24564866  0.49123112  0.25473560  1
  Pb  Pb90  1  0.23301359  0.49057923  0.50434333  1
  Pb  Pb91  1  0.24353018  0.50123828  0.75381836  1
  Pb  Pb92  1  0.24439976  0.74528191  -0.00089795  1
  Pb  Pb93  1  0.24551032  0.75084697  0.24200366  1
  Pb  Pb94  1  0.23413296  0.75043189  0.50614597  1
  Pb  Pb95  1  0.23939455  0.75235419  0.75845809  1
  Pb  Pb96  1  0.49301937  -0.00077643  0.01175622  1
  Pb  Pb97  1  0.49044931  0.00555059  0.25076817  1
  Pb  Pb98  1  0.49867038  0.00487262  0.48922592  1
  Pb  Pb99  1  0.49766350  0.00193149  0.74705016  1
  Pb  Pb100  1  0.50255213  0.23815773  0.00714993  1
  Pb  Pb101  1  0.49865335  0.24388630  0.25268363  1
  Pb  Pb102  1  0.50155431  0.24552153  0.49280200  1
  Pb  Pb103  1  0.49847870  0.25231891  0.74721562  1
  Pb  Pb104  1  0.49675845  0.49860549  -0.00462401  1
  Pb  Pb105  1  0.49559121  0.49467082  0.25576126  1
  Pb  Pb106  1  0.50630079  0.49984300  0.50395655  1
  Pb  Pb107  1  0.49174381  0.50129837  0.74994618  1
  Pb  Pb108  1  0.49820739  0.75756346  0.00301919  1
  Pb  Pb109  1  0.49724102  0.75068403  0.25416234  1
  Pb  Pb110  1  0.50213794  0.74623312  0.50021110  1
  Pb  Pb111  1  0.49442225  0.74860979  0.75004942  1
  Pb  Pb112  1  0.74726855  0.00794060  0.00539868  1
  Pb  Pb113  1  0.75189585  0.00915077  0.24921548  1
  Pb  Pb114  1  0.74515048  0.00673140  0.49712359  1
  Pb  Pb115  1  0.75558126  0.00846766  0.75172887  1
  Pb  Pb116  1  0.75051699  0.24497028  0.00265063  1
  Pb  Pb117  1  0.75535422  0.24144106  0.24698187  1
  Pb  Pb118  1  0.74233496  0.24772691  0.50169599  1
  Pb  Pb119  1  0.75679283  0.24922548  0.75450854  1
  Pb  Pb120  1  0.75914422  0.50248626  0.00217947  1
  Pb  Pb121  1  0.76239797  0.50234727  0.25056818  1
  Pb  Pb122  1  0.74488582  0.49998713  0.50602433  1
  Pb  Pb123  1  0.74916343  0.49678313  0.74578827  1
  Pb  Pb124  1  0.75306408  0.74683703  0.00090477  1
  Pb  Pb125  1  0.75821650  0.74240382  0.25371581  1
  Pb  Pb126  1  0.75105165  0.74394324  0.50462177  1
  Pb  Pb127  1  0.74861583  0.75056380  0.74535570  1
  O  O128  1  0.12194084  -0.00530606  0.15934319  1
  O  O129  1  0.12122908  -0.00985558  0.40569080  1
  O  O130  1  0.12627288  0.00585852  0.67075109  1
  O  O131  1  0.12794961  0.00475025  0.92015950  1
  O  O132  1  0.13057968  0.26134510  0.15954162  1
  O  O133  1  0.12202688  0.25174410  0.40911714  1
  O  O134  1  0.12741582  0.24062585  0.66595845  1
  O  O135  1  0.12858481  0.24109778  0.91236574  1
  O  O136  1  0.13057550  0.49518191  0.15998609  1
  O  O137  1  0.12265345  0.50171618  0.41646138  1
  O  O138  1  0.12706966  0.50159123  0.66779531  1
  O  O139  1  0.12499008  0.50055486  0.90473270  1
  O  O140  1  0.12413542  0.74761613  0.15998812  1
  O  O141  1  0.12197608  0.75571910  0.41325244  1
  O  O142  1  0.12680714  0.75672137  0.66999715  1
  O  O143  1  0.12432531  0.75029955  0.91494314  1
  O  O144  1  0.38035038  -0.00317523  0.16229672  1
  O  O145  1  0.37598778  -0.00529528  0.40786482  1
  O  O146  1  0.37434095  -0.00243398  0.66547035  1
  O  O147  1  0.38021741  -0.00125309  0.92243415  1
  O  O148  1  0.37795716  0.26034599  0.16092004  1
  O  O149  1  0.37659980  0.25131504  0.40986129  1
  O  O150  1  0.37252333  0.24975621  0.65978884  1
  O  O151  1  0.37817218  0.24338562  0.91774088  1
  O  O152  1  0.38004265  0.50442411  0.16596483  1
  O  O153  1  0.37899306  0.51076357  0.41761885  1
  O  O154  1  0.37639166  0.50175874  0.65866589  1
  O  O155  1  0.38193715  0.49792349  0.91091069  1
  O  O156  1  0.38378275  0.73779536  0.16294609  1
  O  O157  1  0.38034950  0.74363160  0.41602400  1
  O  O158  1  0.37916893  0.75774595  0.66160344  1
  O  O159  1  0.38333154  0.75717293  0.91289883  1
  O  O160  1  0.62873681  -0.00855466  0.15830659  1
  O  O161  1  0.62804887  -0.00711633  0.40834649  1
  O  O162  1  0.62389492  -0.00065137  0.66799389  1
  O  O163  1  0.62408409  0.00141060  0.91794527  1
  O  O164  1  0.62172531  0.26346329  0.16227848  1
  O  O165  1  0.62630819  0.25608718  0.41040444  1
  O  O166  1  0.62253452  0.24918263  0.66722857  1
  O  O167  1  0.62304687  0.24405901  0.91311187  1
  O  O168  1  0.62137423  0.49979442  0.16847813  1
  O  O169  1  0.62681850  0.49859321  0.41824354  1
  O  O170  1  0.62372590  0.49834304  0.66628258  1
  O  O171  1  0.62100111  0.49746207  0.90411540  1
  O  O172  1  0.62582814  0.74148706  0.16608775  1
  O  O173  1  0.62692606  0.75301114  0.41588782  1
  O  O174  1  0.62427067  0.75889045  0.66447753  1
  O  O175  1  0.62463379  0.75229484  0.91397314  1
  O  O176  1  0.86786696  -0.01089020  0.15682365  1
  O  O177  1  0.87255077  -0.00954850  0.41257101  1
  O  O178  1  0.87596398  0.00026556  0.66924225  1
  O  O179  1  0.86860949  -0.00855401  0.91410366  1
  O  O180  1  0.87254617  0.25462087  0.15255899  1
  O  O181  1  0.87284182  0.25925962  0.41514802  1
  O  O182  1  0.87705672  0.24918215  0.66839753  1
  O  O183  1  0.87223604  0.24727822  0.91681614  1
  O  O184  1  0.87250812  0.49786638  0.16401774  1
  O  O185  1  0.87001071  0.49210602  0.41745008  1
  O  O186  1  0.87424200  0.49395082  0.66117814  1
  O  O187  1  0.86817853  0.50817036  0.90758111  1
  O  O188  1  0.86753439  0.75209455  0.16320335  1
  O  O189  1  0.87027510  0.75915626  0.41594388  1
  O  O190  1  0.87168387  0.76136378  0.66084576  1
  O  O191  1  0.86601886  0.74968117  0.91353088  1
  O  O192  1  -0.00370165  0.12503381  0.15754898  1
  O  O193  1  -0.00092798  0.12236928  0.41528500  1
  O  O194  1  0.00450259  0.12312416  0.66829910  1
  O  O195  1  0.00715236  0.12137130  0.91241516  1
  O  O196  1  0.00562067  0.37927274  0.15103989  1
  O  O197  1  -0.00745763  0.37748789  0.41146942  1
  O  O198  1  -0.00693076  0.37209564  0.66823103  1
  O  O199  1  0.00240323  0.37296941  0.91036781  1
  O  O200  1  -0.00071694  0.62215508  0.15818805  1
  O  O201  1  -0.00232805  0.62724120  0.41766697  1
  O  O202  1  -0.00459297  0.62850303  0.66940951  1
  O  O203  1  -0.01092990  0.62867070  0.90495849  1
  O  O204  1  -0.00998031  0.87067821  0.15375717  1
  O  O205  1  -0.00312381  0.87403567  0.40771787  1
  O  O206  1  -0.00690231  0.88064114  0.66329135  1
  O  O207  1  -0.01112330  0.87229935  0.91235342  1
  O  O208  1  0.25052513  0.12738740  0.16386749  1
  O  O209  1  0.24638192  0.12161399  0.40484141  1
  O  O210  1  0.24832565  0.12285099  0.66639865  1
  O  O211  1  0.25131261  0.12101157  0.91926608  1
  O  O212  1  0.25738247  0.38099127  0.16088505  1
  O  O213  1  0.25083497  0.37949836  0.41497174  1
  O  O214  1  0.25855862  0.37500407  0.66568522  1
  O  O215  1  0.25165776  0.37067664  0.91278531  1
  O  O216  1  0.25939176  0.62431998  0.15450012  1
  O  O217  1  0.25372014  0.62887202  0.41060946  1
  O  O218  1  0.25941534  0.63040078  0.66540987  1
  O  O219  1  0.25610856  0.62876290  0.90878537  1
  O  O220  1  0.25157993  0.86885467  0.15671031  1
  O  O221  1  0.24429287  0.87100744  0.40427455  1
  O  O222  1  0.25824958  0.87732232  0.66450639  1
  O  O223  1  0.26119985  0.87664946  0.91587501  1
  O  O224  1  0.50245990  0.12856201  0.16565468  1
  O  O225  1  0.50248199  0.12357817  0.40760878  1
  O  O226  1  0.49191719  0.12344685  0.66287928  1
  O  O227  1  0.50312672  0.12219014  0.91916437  1
  O  O228  1  0.49889884  0.38145739  0.16796637  1
  O  O229  1  0.50705150  0.37898281  0.41284212  1
  O  O230  1  0.49134781  0.37384757  0.66260706  1
  O  O231  1  0.50871350  0.36902438  0.91713285  1
  O  O232  1  0.50325015  0.62108895  0.16818832  1
  O  O233  1  0.50231855  0.62606939  0.41801504  1
  O  O234  1  0.49464832  0.62914631  0.66473932  1
  O  O235  1  0.50687674  0.62665498  0.91485826  1
  O  O236  1  0.51342021  0.86720807  0.16755657  1
  O  O237  1  0.50916437  0.87189121  0.41021748  1
  O  O238  1  0.49671744  0.88011588  0.66394532  1
  O  O239  1  0.50261684  0.87799696  0.92026876  1
  O  O240  1  0.75115868  0.12507897  0.16362450  1
  O  O241  1  0.75153769  0.12525276  0.41566271  1
  O  O242  1  0.75541155  0.12425066  0.66434605  1
  O  O243  1  0.74108163  0.12204161  0.91442758  1
  O  O244  1  0.74164700  0.38154624  0.15537370  1
  O  O245  1  0.74760656  0.37631441  0.41566606  1
  O  O246  1  0.75700950  0.37087089  0.66478101  1
  O  O247  1  0.73653201  0.37243150  0.91396119  1
  O  O248  1  0.74146600  0.62056434  0.16582015  1
  O  O249  1  0.74538946  0.62620491  0.42025928  1
  O  O250  1  0.75043601  0.62794298  0.66619724  1
  O  O251  1  0.74527665  0.62594698  0.91377084  1
  O  O252  1  0.74583050  0.86800712  0.16721644  1
  O  O253  1  0.74728230  0.87356997  0.41406851  1
  O  O254  1  0.75264016  0.88193770  0.66372769  1
  O  O255  1  0.74862671  0.87388636  0.91739533  1
  O  O256  1  0.12902822  0.12100535  0.03764903  1
  O  O257  1  0.11350690  0.12969168  0.27537266  1
  O  O258  1  0.12505422  0.12286344  0.55129378  1
  O  O259  1  0.13053052  0.11857702  0.80202542  1
  O  O260  1  0.12857348  0.37732481  0.04426509  1
  O  O261  1  0.12942689  0.38253531  0.28166188  1
  O  O262  1  0.12635934  0.37501450  0.54536464  1
  O  O263  1  0.13301425  0.37045579  0.77781986  1
  O  O264  1  0.12459564  0.62870728  0.02935648  1
  O  O265  1  0.11801196  0.62402662  0.28478152  1
  O  O266  1  0.12375758  0.63581368  0.54209031  1
  O  O267  1  0.12660816  0.63402466  0.78223725  1
  O  O268  1  0.11909670  0.87290289  0.02588582  1
  O  O269  1  0.12396892  0.86756912  0.29264391  1
  O  O270  1  0.12942808  0.87611364  0.53831106  1
  O  O271  1  0.13217130  0.87851378  0.79579061  1
  O  O272  1  0.37672020  0.12356746  0.03902252  1
  O  O273  1  0.38013840  0.12571116  0.27669387  1
  O  O274  1  0.37080821  0.11900457  0.54452235  1
  O  O275  1  0.37527426  0.12110339  0.80373566  1
  O  O276  1  0.38092456  0.38021833  0.05124420  1
  O  O277  1  0.37380548  0.38626581  0.28517630  1
  O  O278  1  0.37339877  0.37195178  0.54832243  1
  O  O279  1  0.37909924  0.36840573  0.78458180  1
  O  O280  1  0.38268652  0.61966633  0.04611428  1
  O  O281  1  0.37379770  0.62469529  0.29965411  1
  O  O282  1  0.37467563  0.62862947  0.55166865  1
  O  O283  1  0.38548810  0.62789336  0.78202276  1
  O  O284  1  0.39047358  0.87253608  0.03973581  1
  O  O285  1  0.38202773  0.86512467  0.27974449  1
  O  O286  1  0.37305104  0.87603477  0.54729511  1
  O  O287  1  0.37996075  0.88102033  0.80476873  1
  O  O288  1  0.62839493  0.13098590  0.03958992  1
  O  O289  1  0.63460153  0.12850750  0.28009793  1
  O  O290  1  0.62767698  0.12562766  0.53520798  1
  O  O291  1  0.62068009  0.12276043  0.80224210  1
  O  O292  1  0.61907135  0.38184253  0.04779991  1
  O  O293  1  0.62829456  0.37931560  0.30108078  1
  O  O294  1  0.62648840  0.37490366  0.53575113  1
  O  O295  1  0.62119462  0.37177326  0.79618136  1
  O  O296  1  0.62166726  0.62255690  0.05205812  1
  O  O297  1  0.62592154  0.62316895  0.30261700  1
  O  O298  1  0.62244184  0.62487628  0.53664512  1
  O  O299  1  0.62346061  0.63191544  0.79365147  1
  O  O300  1  0.62753187  0.86877484  0.05003630  1
  O  O301  1  0.63033223  0.86987520  0.29644013  1
  O  O302  1  0.62455131  0.88006332  0.54757997  1
  O  O303  1  0.62437312  0.87937035  0.79958056  1
  O  O304  1  0.86627176  0.12197102  0.02605316  1
  O  O305  1  0.87364899  0.13102192  0.28503637  1
  O  O306  1  0.87974515  0.12485514  0.54957993  1
  O  O307  1  0.87411240  0.12303545  0.79374863  1
  O  O308  1  0.87235422  0.38494534  0.02330593  1
  O  O309  1  0.87364420  0.37751043  0.29806680  1
  O  O310  1  0.87727582  0.37135945  0.55066149  1
  O  O311  1  0.86969807  0.36506465  0.79203166  1
  O  O312  1  0.86410566  0.62266134  0.03324594  1
  O  O313  1  0.86803444  0.62462340  0.29218657  1
  O  O314  1  0.87474321  0.63122263  0.53412896  1
  O  O315  1  0.86659088  0.63256315  0.79720893  1
  O  O316  1  0.86781100  0.86686984  0.04467338  1
  O  O317  1  0.87338289  0.87126340  0.29655946  1
  O  O318  1  0.87593778  0.88052406  0.54845095  1
  O  O319  1  0.87254840  0.87606757  0.79949486  1
