# generated using pymatgen
data_VFe(PbO3)2
_symmetry_space_group_name_H-M   'P 1'
_cell_length_a   15.38724536
_cell_length_b   15.37229805
_cell_length_c   18.52337023
_cell_angle_alpha   90.02548572
_cell_angle_beta   90.02707089
_cell_angle_gamma   90.00825837
_symmetry_Int_Tables_number   1
_chemical_formula_structural   VFe(PbO3)2
_chemical_formula_sum   'V32 Fe32 Pb64 O192'
_cell_volume   4381.46741748
_cell_formula_units_Z   32
loop_
 _symmetry_equiv_pos_site_id
 _symmetry_equiv_pos_as_xyz
  1  'x, y, z'
loop_
 _atom_site_type_symbol
 _atom_site_label
 _atom_site_symmetry_multiplicity
 _atom_site_fract_x
 _atom_site_fract_y
 _atom_site_fract_z
 _atom_site_occupancy
  V  V0  1  0.12689237  0.37366479  0.39020124  1
  V  V1  1  0.87536222  0.12921195  0.63871629  1
  V  V2  1  0.62337405  0.37391193  0.38817611  1
  V  V3  1  0.37603450  0.12732181  0.39546434  1
  V  V4  1  0.37721638  0.87442804  0.14035217  1
  V  V5  1  0.12872305  0.62812208  0.14370999  1
  V  V6  1  0.12798846  0.87649030  0.13739808  1
  V  V7  1  0.62115928  0.62115138  0.14114102  1
  V  V8  1  0.37033914  0.62406033  0.64286366  1
  V  V9  1  0.12514090  0.37771235  0.88996791  1
  V  V10  1  0.87296707  0.12266285  0.13675399  1
  V  V11  1  0.87385728  0.62795930  0.63482114  1
  V  V12  1  0.87668451  0.37871992  0.63570403  1
  V  V13  1  0.87750169  0.87544224  0.88928401  1
  V  V14  1  0.12794891  0.37428090  0.13824227  1
  V  V15  1  0.87252374  0.62382748  0.38508045  1
  V  V16  1  0.62406722  0.62394790  0.64161637  1
  V  V17  1  0.87555735  0.62429587  0.89683520  1
  V  V18  1  0.12628091  0.12457023  0.39496055  1
  V  V19  1  0.12244234  0.87286871  0.63900566  1
  V  V20  1  0.12064141  0.62492749  0.89013292  1
  V  V21  1  0.62573172  0.87515131  0.13996338  1
  V  V22  1  0.87127401  0.12604133  0.38735700  1
  V  V23  1  0.87469937  0.87716573  0.63813463  1
  V  V24  1  0.37712849  0.62281352  0.39111408  1
  V  V25  1  0.12478090  0.37765423  0.63808578  1
  V  V26  1  0.38535978  0.37481505  0.64993624  1
  V  V27  1  0.12721689  0.12504680  0.13904604  1
  V  V28  1  0.37278603  0.12666832  0.88206989  1
  V  V29  1  0.87791567  0.37548077  0.89261863  1
  V  V30  1  0.12547309  0.87566524  0.39176046  1
  V  V31  1  0.37610814  0.37599575  0.14032708  1
  Fe  Fe32  1  0.87555233  0.37204263  0.38200618  1
  Fe  Fe33  1  0.62436950  0.87598417  0.38688100  1
  Fe  Fe34  1  0.37396318  0.62269929  0.87916250  1
  Fe  Fe35  1  0.87848568  0.12591349  0.88438098  1
  Fe  Fe36  1  0.62350467  0.37300592  0.13110320  1
  Fe  Fe37  1  0.37204567  0.87586842  0.39345002  1
  Fe  Fe38  1  0.12273259  0.12647646  0.63771985  1
  Fe  Fe39  1  0.87557837  0.87419774  0.14505408  1
  Fe  Fe40  1  0.62882761  0.62597014  0.88312451  1
  Fe  Fe41  1  0.12718694  0.62497809  0.39111978  1
  Fe  Fe42  1  0.12370262  0.87261469  0.88380563  1
  Fe  Fe43  1  0.87637198  0.37635674  0.14153555  1
  Fe  Fe44  1  0.37471035  0.62678510  0.13470282  1
  Fe  Fe45  1  0.62653889  0.37653691  0.88068003  1
  Fe  Fe46  1  0.62834585  0.87384484  0.63944404  1
  Fe  Fe47  1  0.62581113  0.12617272  0.63315982  1
  Fe  Fe48  1  0.12049323  0.12649783  0.88261554  1
  Fe  Fe49  1  0.62350564  0.62440045  0.38290589  1
  Fe  Fe50  1  0.37210201  0.87424733  0.87424302  1
  Fe  Fe51  1  0.87831898  0.87865449  0.38093857  1
  Fe  Fe52  1  0.37413745  0.12728190  0.63576836  1
  Fe  Fe53  1  0.62401297  0.12525977  0.39029792  1
  Fe  Fe54  1  0.37325224  0.37460381  0.87398125  1
  Fe  Fe55  1  0.12144010  0.62387003  0.63005515  1
  Fe  Fe56  1  0.87296009  0.62761147  0.13747702  1
  Fe  Fe57  1  0.37419956  0.87425113  0.63940665  1
  Fe  Fe58  1  0.37120957  0.12362688  0.13275856  1
  Fe  Fe59  1  0.61956580  0.12326171  0.13012005  1
  Fe  Fe60  1  0.62448571  0.87203219  0.87934215  1
  Fe  Fe61  1  0.63250888  0.37557212  0.64680618  1
  Fe  Fe62  1  0.62973481  0.12392864  0.88886866  1
  Fe  Fe63  1  0.37466812  0.37421932  0.38689129  1
  Pb  Pb64  1  0.00254193  -0.00046130  -0.00297105  1
  Pb  Pb65  1  -0.00223263  -0.00201880  0.25013139  1
  Pb  Pb66  1  0.00296131  0.00661860  0.50183169  1
  Pb  Pb67  1  0.00038126  0.00713118  0.75386538  1
  Pb  Pb68  1  -0.00347110  0.25367407  0.00185428  1
  Pb  Pb69  1  -0.00206726  0.25317173  0.24917065  1
  Pb  Pb70  1  0.00261839  0.24720991  0.50053803  1
  Pb  Pb71  1  -0.00222957  0.24181507  0.75300360  1
  Pb  Pb72  1  -0.00785210  0.49947238  0.01079728  1
  Pb  Pb73  1  0.00430763  0.50517544  0.25083130  1
  Pb  Pb74  1  0.00171287  0.50335890  0.49668021  1
  Pb  Pb75  1  -0.00370072  0.50297953  0.74654908  1
  Pb  Pb76  1  -0.00987689  0.75186131  0.01065117  1
  Pb  Pb77  1  -0.00284499  0.75192197  0.25162508  1
  Pb  Pb78  1  0.00073468  0.74536856  0.49644722  1
  Pb  Pb79  1  0.00272750  0.75328084  0.74945628  1
  Pb  Pb80  1  0.25040081  0.00008773  -0.01057114  1
  Pb  Pb81  1  0.25559826  -0.00516588  0.25302802  1
  Pb  Pb82  1  0.25922473  0.00248008  0.51022744  1
  Pb  Pb83  1  0.25025178  0.00036859  0.74425963  1
  Pb  Pb84  1  0.25960793  0.24258393  -0.00198952  1
  Pb  Pb85  1  0.25634358  0.25475040  0.25150254  1
  Pb  Pb86  1  0.25221962  0.24318930  0.50809363  1
  Pb  Pb87  1  0.24735199  0.25102444  0.74818673  1
  Pb  Pb88  1  0.25861833  0.50370944  -0.00229456  1
  Pb  Pb89  1  0.24779791  0.50387657  0.25413579  1
  Pb  Pb90  1  0.24893408  0.50201120  0.50212730  1
  Pb  Pb91  1  0.25658871  0.50222825  0.75300819  1
  Pb  Pb92  1  0.25850066  0.74800932  -0.00646485  1
  Pb  Pb93  1  0.25565820  0.75478213  0.25552413  1
  Pb  Pb94  1  0.25578153  0.75430687  0.50461093  1
  Pb  Pb95  1  0.24614926  0.75831617  0.75332513  1
  Pb  Pb96  1  0.50092012  0.00227149  -0.01114078  1
  Pb  Pb97  1  0.50347898  0.00126033  0.25388291  1
  Pb  Pb98  1  0.50208073  -0.00644018  0.50377701  1
  Pb  Pb99  1  0.50295845  -0.00171450  0.74005850  1
  Pb  Pb100  1  0.50650576  0.25255569  -0.00833142  1
  Pb  Pb101  1  0.50410712  0.24140228  0.24515065  1
  Pb  Pb102  1  0.50106143  0.24374082  0.50678559  1
  Pb  Pb103  1  0.51577343  0.24205169  0.75275087  1
  Pb  Pb104  1  0.50074731  0.49793735  -0.01358533  1
  Pb  Pb105  1  0.49505386  0.49823018  0.24986297  1
  Pb  Pb106  1  0.50373857  0.49525095  0.50209507  1
  Pb  Pb107  1  0.50247884  0.51061692  0.75788626  1
  Pb  Pb108  1  0.49768219  0.74682288  -0.01446088  1
  Pb  Pb109  1  0.50531101  0.75308102  0.25535581  1
  Pb  Pb110  1  0.50337628  0.75926538  0.50149810  1
  Pb  Pb111  1  0.49938457  0.75744168  0.74979677  1
  Pb  Pb112  1  0.74746575  0.00269505  -0.00416268  1
  Pb  Pb113  1  0.73516720  0.00103821  0.25576332  1
  Pb  Pb114  1  0.73983728  -0.00431060  0.49950141  1
  Pb  Pb115  1  0.73963267  0.00383799  0.75225039  1
  Pb  Pb116  1  0.74109909  0.25103063  0.00072469  1
  Pb  Pb117  1  0.74767058  0.25147824  0.24420942  1
  Pb  Pb118  1  0.73625182  0.25488452  0.50641811  1
  Pb  Pb119  1  0.74377691  0.24739910  0.75610623  1
  Pb  Pb120  1  0.74657622  0.49144491  0.00361632  1
  Pb  Pb121  1  0.75420332  0.49603062  0.24630526  1
  Pb  Pb122  1  0.74647969  0.49320907  0.49804604  1
  Pb  Pb123  1  0.74531454  0.50281773  0.75393951  1
  Pb  Pb124  1  0.75662276  0.75228041  0.00394443  1
  Pb  Pb125  1  0.74290254  0.75146531  0.25290309  1
  Pb  Pb126  1  0.74420404  0.75756346  0.49401746  1
  Pb  Pb127  1  0.74452344  0.74875514  0.75229459  1
  O  O128  1  0.12767306  -0.00097153  0.16497090  1
  O  O129  1  0.12558799  -0.00215935  0.41833377  1
  O  O130  1  0.12079036  -0.00830760  0.65899247  1
  O  O131  1  0.12104569  -0.00034348  0.91149153  1
  O  O132  1  0.12830851  0.25097372  0.16622212  1
  O  O133  1  0.12553125  0.25354053  0.41722581  1
  O  O134  1  0.11699034  0.25964988  0.66240800  1
  O  O135  1  0.11764139  0.26085545  0.91105234  1
  O  O136  1  0.12858452  0.50171293  0.16563731  1
  O  O137  1  0.12516505  0.49251372  0.41498063  1
  O  O138  1  0.11703818  0.49631154  0.66215366  1
  O  O139  1  0.11996816  0.49939133  0.91918313  1
  O  O140  1  0.12869400  0.74838235  0.16536919  1
  O  O141  1  0.12529708  0.75627891  0.41287241  1
  O  O142  1  0.12177740  0.75089895  0.66163852  1
  O  O143  1  0.12211992  0.73957933  0.91231137  1
  O  O144  1  0.36989380  -0.00788516  0.16308312  1
  O  O145  1  0.37056206  0.00796529  0.41806118  1
  O  O146  1  0.37046010  0.00062529  0.66099194  1
  O  O147  1  0.36992103  0.00721951  0.90330576  1
  O  O148  1  0.37141048  0.25624120  0.16305613  1
  O  O149  1  0.37189817  0.24739658  0.41813579  1
  O  O150  1  0.36934038  0.25873913  0.66555077  1
  O  O151  1  0.37017255  0.24754280  0.90663505  1
  O  O152  1  0.37422641  0.49657180  0.16395337  1
  O  O153  1  0.37597554  0.50231706  0.41872303  1
  O  O154  1  0.37514442  0.49883188  0.66735097  1
  O  O155  1  0.36981065  0.49717339  0.90913474  1
  O  O156  1  0.37291817  0.75615230  0.16650696  1
  O  O157  1  0.37323232  0.74153463  0.41596651  1
  O  O158  1  0.37504968  0.73962606  0.66037525  1
  O  O159  1  0.36938602  0.74748080  0.90537406  1
  O  O160  1  0.62114733  -0.00513177  0.16341902  1
  O  O161  1  0.62359959  0.00157310  0.41821712  1
  O  O162  1  0.63004027  0.00121590  0.66094087  1
  O  O163  1  0.62779255  -0.00363322  0.91197396  1
  O  O164  1  0.62233066  0.24762418  0.16099149  1
  O  O165  1  0.62550582  0.25581437  0.41340274  1
  O  O166  1  0.63235436  0.24882648  0.66731489  1
  O  O167  1  0.62862396  0.25128537  0.91147841  1
  O  O168  1  0.62099713  0.50400764  0.15905041  1
  O  O169  1  0.62470571  0.49517011  0.41368271  1
  O  O170  1  0.62942502  0.50576576  0.66643376  1
  O  O171  1  0.63147123  0.50058732  0.91208164  1
  O  O172  1  0.61994815  0.75548136  0.16549044  1
  O  O173  1  0.62467336  0.74796324  0.41399588  1
  O  O174  1  0.62811794  0.74176282  0.66288193  1
  O  O175  1  0.62946076  0.75007067  0.91344429  1
  O  O176  1  0.88147159  0.00714790  0.16274890  1
  O  O177  1  0.88204596  0.00856795  0.41301612  1
  O  O178  1  0.87959592  -0.00612831  0.66008398  1
  O  O179  1  0.87978797  -0.00790141  0.90972104  1
  O  O180  1  0.87899981  0.24067829  0.16406606  1
  O  O181  1  0.88016982  0.24365216  0.41232224  1
  O  O182  1  0.88026700  0.24674349  0.65576070  1
  O  O183  1  0.88140759  0.25880720  0.91060607  1
  O  O184  1  0.87487869  0.50413686  0.16673915  1
  O  O185  1  0.87572531  0.50274508  0.40953072  1
  O  O186  1  0.87583907  0.50365477  0.66212259  1
  O  O187  1  0.87872626  0.50215219  0.91958936  1
  O  O188  1  0.87571965  0.74864691  0.17268704  1
  O  O189  1  0.87769323  0.74383526  0.40698791  1
  O  O190  1  0.87564859  0.75142499  0.66360900  1
  O  O191  1  0.87973793  0.74677774  0.91705083  1
  O  O192  1  0.00397744  0.12564069  0.16476477  1
  O  O193  1  0.00168811  0.12653872  0.41705339  1
  O  O194  1  -0.00566009  0.12116269  0.66450074  1
  O  O195  1  -0.00066910  0.12715797  0.92135008  1
  O  O196  1  0.00760110  0.37497001  0.16528933  1
  O  O197  1  0.00631982  0.37335725  0.41144257  1
  O  O198  1  -0.00370011  0.37762447  0.66552814  1
  O  O199  1  -0.00091254  0.38128365  0.92126045  1
  O  O200  1  0.00929769  0.62512057  0.16539403  1
  O  O201  1  -0.00523055  0.62301000  0.41252621  1
  O  O202  1  -0.00502656  0.62637197  0.66196145  1
  O  O203  1  0.00080566  0.62197195  0.92104261  1
  O  O204  1  0.00850187  0.87402260  0.16638556  1
  O  O205  1  0.00652259  0.87659965  0.41413332  1
  O  O206  1  -0.00205276  0.87034086  0.66393447  1
  O  O207  1  -0.00459396  0.86901419  0.91644351  1
  O  O208  1  0.24664304  0.12507933  0.16791618  1
  O  O209  1  0.24931420  0.12744474  0.42030154  1
  O  O210  1  0.24643027  0.12938529  0.66303465  1
  O  O211  1  0.24998925  0.12897283  0.90813228  1
  O  O212  1  0.25160858  0.37688517  0.16781035  1
  O  O213  1  0.24474105  0.37452319  0.41720810  1
  O  O214  1  0.23865982  0.37861721  0.66134024  1
  O  O215  1  0.24088771  0.37718824  0.90769246  1
  O  O216  1  0.24769665  0.62496961  0.16824252  1
  O  O217  1  0.25682659  0.62139694  0.41674047  1
  O  O218  1  0.25199093  0.61854593  0.65627114  1
  O  O219  1  0.23897090  0.61960434  0.90983989  1
  O  O220  1  0.25062397  0.87307855  0.16842250  1
  O  O221  1  0.24250322  0.87604664  0.42160888  1
  O  O222  1  0.24071733  0.87005639  0.65959874  1
  O  O223  1  0.24882402  0.87432726  0.91109533  1
  O  O224  1  0.49471602  0.12186617  0.16321886  1
  O  O225  1  0.49305309  0.12854011  0.41421778  1
  O  O226  1  0.49999649  0.12893939  0.66201716  1
  O  O227  1  0.49133161  0.12625118  0.90398985  1
  O  O228  1  0.49368127  0.37574983  0.16033471  1
  O  O229  1  0.50527274  0.37455880  0.41534561  1
  O  O230  1  0.49981735  0.37569509  0.66395831  1
  O  O231  1  0.49842364  0.37505570  0.90048772  1
  O  O232  1  0.50213301  0.62898493  0.16530314  1
  O  O233  1  0.49444834  0.62199438  0.41649227  1
  O  O234  1  0.50341467  0.62096626  0.66370017  1
  O  O235  1  0.50051575  0.62285547  0.90599290  1
  O  O236  1  0.49618752  0.87549735  0.16281602  1
  O  O237  1  0.49708907  0.87591009  0.41714927  1
  O  O238  1  0.50107598  0.87075001  0.66009221  1
  O  O239  1  0.49678586  0.87520362  0.90420296  1
  O  O240  1  0.75645288  0.12203004  0.15645253  1
  O  O241  1  0.75702679  0.12521271  0.40742553  1
  O  O242  1  0.76080756  0.12204547  0.66157587  1
  O  O243  1  0.75684434  0.12378819  0.91552160  1
  O  O244  1  0.74790978  0.37376415  0.16430081  1
  O  O245  1  0.74508383  0.37525162  0.41156868  1
  O  O246  1  0.76315395  0.37499969  0.66757655  1
  O  O247  1  0.76099548  0.37838967  0.91185785  1
  O  O248  1  0.73949802  0.63035945  0.16310104  1
  O  O249  1  0.75587462  0.62267470  0.40857335  1
  O  O250  1  0.75074216  0.62526052  0.66364451  1
  O  O251  1  0.76004566  0.62531908  0.91591569  1
  O  O252  1  0.74203991  0.87582955  0.16162697  1
  O  O253  1  0.75475935  0.87707886  0.41123756  1
  O  O254  1  0.76012647  0.87252597  0.66271438  1
  O  O255  1  0.76127249  0.87046023  0.91272854  1
  O  O256  1  0.12767666  0.12582576  0.04804962  1
  O  O257  1  0.12718566  0.12514494  0.30423449  1
  O  O258  1  0.11792211  0.12976693  0.53680531  1
  O  O259  1  0.11201298  0.12774072  0.78215498  1
  O  O260  1  0.13024194  0.37364336  0.04718879  1
  O  O261  1  0.12977755  0.37275844  0.29900387  1
  O  O262  1  0.12191559  0.37756230  0.54673132  1
  O  O263  1  0.11769906  0.38190275  0.79922236  1
  O  O264  1  0.12912386  0.62672900  0.05311305  1
  O  O265  1  0.12754917  0.61782417  0.29171589  1
  O  O266  1  0.11918968  0.62151150  0.53000507  1
  O  O267  1  0.11566141  0.62123034  0.79901547  1
  O  O268  1  0.12923327  0.87489835  0.04648356  1
  O  O269  1  0.13022381  0.87876211  0.30072736  1
  O  O270  1  0.11935331  0.87037659  0.54796901  1
  O  O271  1  0.12345946  0.86336145  0.78396592  1
  O  O272  1  0.36618641  0.12948747  0.03355578  1
  O  O273  1  0.37098862  0.12707188  0.30413061  1
  O  O274  1  0.37169558  0.13196259  0.53521246  1
  O  O275  1  0.36845092  0.12922599  0.79113239  1
  O  O276  1  0.37082513  0.37526425  0.04931174  1
  O  O277  1  0.37449162  0.37569591  0.28812617  1
  O  O278  1  0.37564914  0.37785944  0.55840868  1
  O  O279  1  0.36214561  0.37828991  0.77317889  1
  O  O280  1  0.36742093  0.62583716  0.03571372  1
  O  O281  1  0.37694622  0.62130835  0.29953844  1
  O  O282  1  0.37861540  0.61787243  0.55200801  1
  O  O283  1  0.37320690  0.61598936  0.77829581  1
  O  O284  1  0.37401112  0.87292995  0.04968764  1
  O  O285  1  0.36366734  0.87574201  0.29338383  1
  O  O286  1  0.36760861  0.87166338  0.53689242  1
  O  O287  1  0.36635370  0.86879149  0.77301781  1
  O  O288  1  0.62137668  0.12339746  0.02944251  1
  O  O289  1  0.62122360  0.11631479  0.28910995  1
  O  O290  1  0.62763192  0.13582207  0.53149388  1
  O  O291  1  0.63335317  0.12839312  0.78669698  1
  O  O292  1  0.62810320  0.37236156  0.03103446  1
  O  O293  1  0.62182343  0.37413871  0.29707557  1
  O  O294  1  0.63660941  0.37468713  0.54513027  1
  O  O295  1  0.63710938  0.37360614  0.77855099  1
  O  O296  1  0.62107791  0.62697379  0.05053408  1
  O  O297  1  0.62017497  0.62989045  0.28381758  1
  O  O298  1  0.62460849  0.62141459  0.55046583  1
  O  O299  1  0.63270246  0.62276220  0.78248768  1
  O  O300  1  0.62171056  0.87465914  0.04944672  1
  O  O301  1  0.62256035  0.88078909  0.28545557  1
  O  O302  1  0.63253011  0.87277235  0.53761532  1
  O  O303  1  0.63251475  0.87083074  0.77797168  1
  O  O304  1  0.87821923  0.12419787  0.04570627  1
  O  O305  1  0.87688276  0.12469773  0.29612208  1
  O  O306  1  0.87692544  0.12287591  0.54771423  1
  O  O307  1  0.88629710  0.12333579  0.78420560  1
  O  O308  1  0.87896403  0.37801916  0.04097573  1
  O  O309  1  0.87387027  0.36859754  0.28235313  1
  O  O310  1  0.87428689  0.37912678  0.54404749  1
  O  O311  1  0.88297243  0.38215084  0.80197909  1
  O  O312  1  0.87883229  0.63230397  0.03725876  1
  O  O313  1  0.87554800  0.62239237  0.29379626  1
  O  O314  1  0.87316636  0.62765897  0.54377245  1
  O  O315  1  0.87918845  0.62399853  0.80586811  1
  O  O316  1  0.87652568  0.86474836  0.04465975  1
  O  O317  1  0.88288011  0.88140046  0.28080844  1
  O  O318  1  0.87689180  0.87478658  0.54715604  1
  O  O319  1  0.87893124  0.87023091  0.79829391  1
