# generated using pymatgen
data_VFe(PbO3)2
_symmetry_space_group_name_H-M   'P 1'
_cell_length_a   15.38010223
_cell_length_b   15.37129869
_cell_length_c   18.51244804
_cell_angle_alpha   90.01531688
_cell_angle_beta   90.02210835
_cell_angle_gamma   90.00089190
_symmetry_Int_Tables_number   1
_chemical_formula_structural   VFe(PbO3)2
_chemical_formula_sum   'V32 Fe32 Pb64 O192'
_cell_volume   4376.56707143
_cell_formula_units_Z   32
loop_
 _symmetry_equiv_pos_site_id
 _symmetry_equiv_pos_as_xyz
  1  'x, y, z'
loop_
 _atom_site_type_symbol
 _atom_site_label
 _atom_site_symmetry_multiplicity
 _atom_site_fract_x
 _atom_site_fract_y
 _atom_site_fract_z
 _atom_site_occupancy
  V  V0  1  0.62452206  0.62644931  0.63991684  1
  V  V1  1  0.12719178  0.12719243  0.14493634  1
  V  V2  1  0.37188088  0.37624425  0.88817918  1
  V  V3  1  0.62626947  0.62204201  0.13990309  1
  V  V4  1  0.37375062  0.62964409  0.88708209  1
  V  V5  1  0.87366449  0.87563877  0.64440110  1
  V  V6  1  0.12381080  0.87546661  0.63922935  1
  V  V7  1  0.87425400  0.37254298  0.13958800  1
  V  V8  1  0.87316780  0.12980654  0.38806843  1
  V  V9  1  0.37699302  0.12535434  0.38728307  1
  V  V10  1  0.87468944  0.12421155  0.13512295  1
  V  V11  1  0.37802559  0.62627281  0.13785361  1
  V  V12  1  0.37702630  0.87665704  0.14394211  1
  V  V13  1  0.37541444  0.12653591  0.14034365  1
  V  V14  1  0.12704697  0.12702582  0.89024393  1
  V  V15  1  0.12965078  0.87685346  0.89435314  1
  V  V16  1  0.87065034  0.12504064  0.88946273  1
  V  V17  1  0.62690474  0.37691960  0.38993023  1
  V  V18  1  0.87251441  0.37367578  0.64228586  1
  V  V19  1  0.12806645  0.62393044  0.89014082  1
  V  V20  1  0.12380790  0.87212632  0.38722324  1
  V  V21  1  0.12348585  0.37784278  0.39229865  1
  V  V22  1  0.37564707  0.12543801  0.63538147  1
  V  V23  1  0.37920484  0.62536482  0.39537121  1
  V  V24  1  0.12356217  0.62536279  0.64041375  1
  V  V25  1  0.87684074  0.87587127  0.38767287  1
  V  V26  1  0.12503893  0.62558700  0.38819706  1
  V  V27  1  0.62846195  0.12173219  0.64391081  1
  V  V28  1  0.37269085  0.12608108  0.88914513  1
  V  V29  1  0.37693854  0.87536833  0.64071204  1
  V  V30  1  0.87524452  0.12479741  0.63800526  1
  V  V31  1  0.87586432  0.62400869  0.13404609  1
  Fe  Fe32  1  0.87811511  0.37260279  0.88192974  1
  Fe  Fe33  1  0.62610947  0.12591428  0.38223409  1
  Fe  Fe34  1  0.12454509  0.87334110  0.13582813  1
  Fe  Fe35  1  0.12368175  0.37216297  0.63610817  1
  Fe  Fe36  1  0.12702849  0.37396339  0.88213821  1
  Fe  Fe37  1  0.62106357  0.12595806  0.88326417  1
  Fe  Fe38  1  0.37603441  0.37576004  0.62781251  1
  Fe  Fe39  1  0.62106126  0.62273309  0.88035656  1
  Fe  Fe40  1  0.62433783  0.12732307  0.13933586  1
  Fe  Fe41  1  0.12256919  0.12028814  0.63277969  1
  Fe  Fe42  1  0.87665445  0.62545890  0.64800987  1
  Fe  Fe43  1  0.87565345  0.62451751  0.38668983  1
  Fe  Fe44  1  0.37577236  0.37638465  0.13674482  1
  Fe  Fe45  1  0.62599297  0.87450301  0.38334209  1
  Fe  Fe46  1  0.62665259  0.62515299  0.38439457  1
  Fe  Fe47  1  0.62558781  0.37649541  0.13536913  1
  Fe  Fe48  1  0.87715316  0.87630522  0.89411583  1
  Fe  Fe49  1  0.62570116  0.87535125  0.64196427  1
  Fe  Fe50  1  0.37423343  0.37405680  0.39536176  1
  Fe  Fe51  1  0.37229488  0.87834384  0.88436479  1
  Fe  Fe52  1  0.62682075  0.87409123  0.13859694  1
  Fe  Fe53  1  0.12338973  0.12487528  0.38641797  1
  Fe  Fe54  1  0.12507611  0.37784798  0.13659738  1
  Fe  Fe55  1  0.37178054  0.87575883  0.38315454  1
  Fe  Fe56  1  0.37397421  0.62796717  0.63209940  1
  Fe  Fe57  1  0.87525695  0.62402964  0.87740538  1
  Fe  Fe58  1  0.87591584  0.37610007  0.38487888  1
  Fe  Fe59  1  0.62461433  0.37262018  0.87826251  1
  Fe  Fe60  1  0.62078255  0.87586374  0.88102827  1
  Fe  Fe61  1  0.62381881  0.37329675  0.64314859  1
  Fe  Fe62  1  0.87503142  0.87423152  0.12637719  1
  Fe  Fe63  1  0.12789734  0.62352410  0.13343918  1
  Pb  Pb64  1  0.00117521  -0.00609060  0.00480899  1
  Pb  Pb65  1  0.00414846  0.00362456  0.24703767  1
  Pb  Pb66  1  0.00204251  0.00360968  0.49869993  1
  Pb  Pb67  1  -0.00602385  -0.00272807  0.75419697  1
  Pb  Pb68  1  0.00664643  0.25598643  -0.00105475  1
  Pb  Pb69  1  0.00357775  0.24854516  0.25216403  1
  Pb  Pb70  1  0.00996716  0.25167820  0.50386287  1
  Pb  Pb71  1  0.00114332  0.25459540  0.74993678  1
  Pb  Pb72  1  0.00471183  0.49720967  -0.00584108  1
  Pb  Pb73  1  -0.00822827  0.50111926  0.25021064  1
  Pb  Pb74  1  -0.00623767  0.50345556  0.50345660  1
  Pb  Pb75  1  -0.00488480  0.49023238  0.75395469  1
  Pb  Pb76  1  0.00190921  0.75010056  -0.00082455  1
  Pb  Pb77  1  0.00014501  0.75046445  0.24138195  1
  Pb  Pb78  1  -0.00691771  0.74272086  0.50318325  1
  Pb  Pb79  1  -0.00766334  0.75314374  0.75725909  1
  Pb  Pb80  1  0.24897583  -0.00194554  0.00471227  1
  Pb  Pb81  1  0.25380645  -0.00247192  0.25333374  1
  Pb  Pb82  1  0.24605825  0.00552173  0.49596071  1
  Pb  Pb83  1  0.25641616  -0.00262922  0.74938806  1
  Pb  Pb84  1  0.25322705  0.26071758  0.00497905  1
  Pb  Pb85  1  0.25400171  0.25722402  0.25408329  1
  Pb  Pb86  1  0.24404242  0.25269398  0.50153711  1
  Pb  Pb87  1  0.24315376  0.25397001  0.74219808  1
  Pb  Pb88  1  0.24832765  0.49486653  0.00393369  1
  Pb  Pb89  1  0.25163198  0.49438928  0.24950626  1
  Pb  Pb90  1  0.25381064  0.50076418  0.50413003  1
  Pb  Pb91  1  0.25160149  0.49486107  0.74194856  1
  Pb  Pb92  1  0.24208576  0.74760228  0.00675832  1
  Pb  Pb93  1  0.25528554  0.75277233  0.24942033  1
  Pb  Pb94  1  0.25323729  0.74634670  0.50086250  1
  Pb  Pb95  1  0.25318758  0.75532591  0.75097081  1
  Pb  Pb96  1  0.51055586  -0.00140754  0.00132013  1
  Pb  Pb97  1  0.51042394  -0.00228228  0.25329004  1
  Pb  Pb98  1  0.50635766  -0.00625610  0.49518841  1
  Pb  Pb99  1  0.50342875  -0.00164326  0.75427493  1
  Pb  Pb100  1  0.50906852  0.25047041  0.00361708  1
  Pb  Pb101  1  0.50267539  0.25381274  0.25008499  1
  Pb  Pb102  1  0.50378909  0.25709217  0.50291592  1
  Pb  Pb103  1  0.50381862  0.24947957  0.75001043  1
  Pb  Pb104  1  0.50110726  0.48979248  -0.00421104  1
  Pb  Pb105  1  0.49699246  0.49443413  0.25185198  1
  Pb  Pb106  1  0.50029761  0.49320020  0.50451143  1
  Pb  Pb107  1  0.50086075  0.49867388  0.74328871  1
  Pb  Pb108  1  0.50816130  0.75933813  -0.00328797  1
  Pb  Pb109  1  0.50910950  0.74855408  0.25450188  1
  Pb  Pb110  1  0.50715476  0.75671627  0.49832001  1
  Pb  Pb111  1  0.50703902  0.75080720  0.75186405  1
  Pb  Pb112  1  0.74039207  -0.01044363  -0.00111724  1
  Pb  Pb113  1  0.74272332  -0.00476480  0.24643774  1
  Pb  Pb114  1  0.74362092  -0.00560273  0.49858461  1
  Pb  Pb115  1  0.74969669  -0.00979533  0.75829843  1
  Pb  Pb116  1  0.73597414  0.25325187  -0.00094484  1
  Pb  Pb117  1  0.74647625  0.24953913  0.24917401  1
  Pb  Pb118  1  0.74291765  0.25842879  0.50301354  1
  Pb  Pb119  1  0.74487342  0.25047446  0.75437605  1
  Pb  Pb120  1  0.74922473  0.49729967  -0.01548820  1
  Pb  Pb121  1  0.75869788  0.50390890  0.25410105  1
  Pb  Pb122  1  0.75505482  0.50674276  0.50151617  1
  Pb  Pb123  1  0.74711828  0.50280959  0.75208699  1
  Pb  Pb124  1  0.75057179  0.75079020  -0.01264832  1
  Pb  Pb125  1  0.74698404  0.74715162  0.24770755  1
  Pb  Pb126  1  0.74811347  0.74757882  0.49927775  1
  Pb  Pb127  1  0.74695041  0.74322829  0.75672747  1
  O  O128  1  0.12480510  0.00305935  0.16658103  1
  O  O129  1  0.12083865  -0.00505234  0.41288881  1
  O  O130  1  0.12453933  -0.00523261  0.66578219  1
  O  O131  1  0.13031290  -0.00165328  0.91594464  1
  O  O132  1  0.12497024  0.24965398  0.16951056  1
  O  O133  1  0.12303262  0.25439341  0.41269831  1
  O  O134  1  0.12465069  0.24380282  0.66251910  1
  O  O135  1  0.12879088  0.24394339  0.91110563  1
  O  O136  1  0.12686027  0.50179437  0.16663550  1
  O  O137  1  0.12414653  0.49879386  0.41550552  1
  O  O138  1  0.12441940  0.50734350  0.65761400  1
  O  O139  1  0.13001197  0.50531140  0.90838973  1
  O  O140  1  0.12548821  0.74724225  0.16629388  1
  O  O141  1  0.12319599  0.74993393  0.41603642  1
  O  O142  1  0.12416340  0.75519915  0.66980314  1
  O  O143  1  0.13185084  0.75053890  0.91478951  1
  O  O144  1  0.37253393  -0.00103054  0.16482229  1
  O  O145  1  0.37252894  0.00594428  0.41307793  1
  O  O146  1  0.37518977  -0.00101694  0.66490230  1
  O  O147  1  0.36729196  0.00896656  0.91405842  1
  O  O148  1  0.37376949  0.24348467  0.16283843  1
  O  O149  1  0.37388801  0.24213411  0.41340903  1
  O  O150  1  0.37557555  0.24115450  0.65592002  1
  O  O151  1  0.36524105  0.24831890  0.91161578  1
  O  O152  1  0.37841611  0.50851673  0.16356981  1
  O  O153  1  0.37278309  0.50631218  0.41785221  1
  O  O154  1  0.37240146  0.50285465  0.65889113  1
  O  O155  1  0.37118471  0.49560875  0.91069180  1
  O  O156  1  0.37754892  0.74960047  0.16444063  1
  O  O157  1  0.37077544  0.74565483  0.41478079  1
  O  O158  1  0.37288043  0.75664592  0.66212396  1
  O  O159  1  0.37148062  0.74419745  0.90790016  1
  O  O160  1  0.62454916  0.00151399  0.16442659  1
  O  O161  1  0.62792684  0.00091417  0.41337125  1
  O  O162  1  0.62390030  0.00504870  0.66709251  1
  O  O163  1  0.62086554  0.00263168  0.91210527  1
  O  O164  1  0.62586857  0.25202183  0.16849772  1
  O  O165  1  0.62710494  0.25348686  0.41365877  1
  O  O166  1  0.62394186  0.24029238  0.66547034  1
  O  O167  1  0.62069054  0.24950289  0.91368747  1
  O  O168  1  0.62300992  0.50598743  0.16346379  1
  O  O169  1  0.62487916  0.49481510  0.41353684  1
  O  O170  1  0.62523178  0.50560008  0.66094292  1
  O  O171  1  0.61851444  0.49664644  0.90810666  1
  O  O172  1  0.62438201  0.74317027  0.16333507  1
  O  O173  1  0.62604360  0.75055466  0.41640409  1
  O  O174  1  0.62509426  0.74683586  0.66404820  1
  O  O175  1  0.61937689  0.74852851  0.90937252  1
  O  O176  1  0.87957740  0.00854945  0.15385030  1
  O  O177  1  0.87681981  -0.00382112  0.41283586  1
  O  O178  1  0.87415516  -0.00124357  0.66850918  1
  O  O179  1  0.88213989  0.01087167  0.91855210  1
  O  O180  1  0.87630171  0.25259326  0.16317375  1
  O  O181  1  0.87411242  0.24593894  0.40812558  1
  O  O182  1  0.87281793  0.24876600  0.66452931  1
  O  O183  1  0.88537212  0.23943445  0.91352235  1
  O  O184  1  0.87180225  0.50132156  0.16150627  1
  O  O185  1  0.87635019  0.49856410  0.42052063  1
  O  O186  1  0.87589289  0.49270626  0.66362080  1
  O  O187  1  0.88076665  0.50033675  0.90878479  1
  O  O188  1  0.87248359  0.74104753  0.15447770  1
  O  O189  1  0.87769418  0.75632607  0.41361226  1
  O  O190  1  0.87636153  0.75861018  0.66774589  1
  O  O191  1  0.87967381  0.74759966  0.90989864  1
  O  O192  1  -0.00386680  0.13019813  0.16506896  1
  O  O193  1  -0.00895907  0.12286266  0.41499327  1
  O  O194  1  -0.00611209  0.12151549  0.66207909  1
  O  O195  1  0.01240346  0.12161909  0.91622583  1
  O  O196  1  -0.00722976  0.37781059  0.16273460  1
  O  O197  1  0.00479339  0.37499086  0.41419217  1
  O  O198  1  -0.00536770  0.37164535  0.66280178  1
  O  O199  1  0.00425070  0.37295959  0.91461471  1
  O  O200  1  -0.00772035  0.62170118  0.15607301  1
  O  O201  1  0.00403394  0.62497627  0.41777479  1
  O  O202  1  0.00944608  0.63036158  0.66924139  1
  O  O203  1  0.01118435  0.62740798  0.90748508  1
  O  O204  1  -0.00284689  0.87329750  0.16240741  1
  O  O205  1  -0.00272650  0.87453891  0.41547069  1
  O  O206  1  -0.00287632  0.87733741  0.66794480  1
  O  O207  1  0.01165311  0.87566391  0.91559391  1
  O  O208  1  0.25478130  0.12382333  0.16813253  1
  O  O209  1  0.25296702  0.12432521  0.41166125  1
  O  O210  1  0.25769183  0.11932177  0.65825434  1
  O  O211  1  0.24579399  0.12385501  0.91974075  1
  O  O212  1  0.25188521  0.37511616  0.16936669  1
  O  O213  1  0.24276122  0.37528668  0.41604216  1
  O  O214  1  0.25150852  0.37312645  0.65881700  1
  O  O215  1  0.25265340  0.37447879  0.91493293  1
  O  O216  1  0.26101599  0.62771976  0.16054772  1
  O  O217  1  0.24708408  0.62465597  0.41757425  1
  O  O218  1  0.24161010  0.63156860  0.66441541  1
  O  O219  1  0.25373781  0.62348261  0.91707885  1
  O  O220  1  0.25529859  0.87372443  0.16601070  1
  O  O221  1  0.24396933  0.87503562  0.41319009  1
  O  O222  1  0.25152617  0.87690979  0.66354301  1
  O  O223  1  0.24798547  0.87523676  0.91993338  1
  O  O224  1  0.49080878  0.12310711  0.16449561  1
  O  O225  1  0.49562652  0.12418426  0.40931879  1
  O  O226  1  0.49673871  0.12100421  0.66242681  1
  O  O227  1  0.48737282  0.12867660  0.90959976  1
  O  O228  1  0.50002515  0.37636659  0.16792867  1
  O  O229  1  0.50697301  0.37423739  0.41513364  1
  O  O230  1  0.49697623  0.37321646  0.66274935  1
  O  O231  1  0.48890549  0.37069009  0.90817137  1
  O  O232  1  0.49906293  0.62709130  0.16574856  1
  O  O233  1  0.49596127  0.62513152  0.41383907  1
  O  O234  1  0.50389625  0.62759101  0.65933908  1
  O  O235  1  0.48787802  0.62006652  0.91108977  1
  O  O236  1  0.49395170  0.87494250  0.16528550  1
  O  O237  1  0.49746159  0.87529335  0.41132388  1
  O  O238  1  0.49357866  0.87680483  0.66180686  1
  O  O239  1  0.49455838  0.87751701  0.91388169  1
  O  O240  1  0.75956337  0.12889136  0.16020784  1
  O  O241  1  0.75766517  0.12260501  0.41412465  1
  O  O242  1  0.74789950  0.12275007  0.66613268  1
  O  O243  1  0.75540734  0.12614730  0.90443680  1
  O  O244  1  0.75617263  0.37648724  0.16283215  1
  O  O245  1  0.74533234  0.37489085  0.41566720  1
  O  O246  1  0.75479890  0.37203087  0.66501480  1
  O  O247  1  0.75178453  0.37023199  0.90542540  1
  O  O248  1  0.74829194  0.62290015  0.15906481  1
  O  O249  1  0.75088929  0.62486833  0.41781054  1
  O  O250  1  0.74512323  0.62615016  0.66501064  1
  O  O251  1  0.74889463  0.62292346  0.90562233  1
  O  O252  1  0.75390726  0.87494546  0.16042098  1
  O  O253  1  0.75880799  0.87508320  0.41176023  1
  O  O254  1  0.75590215  0.87769547  0.66673184  1
  O  O255  1  0.74809275  0.87845194  0.90942585  1
  O  O256  1  0.12760707  0.12718636  0.05366197  1
  O  O257  1  0.11486932  0.12589738  0.28668718  1
  O  O258  1  0.12111899  0.12217309  0.53197735  1
  O  O259  1  0.12834679  0.12331426  0.79929215  1
  O  O260  1  0.12960799  0.37602157  0.03612664  1
  O  O261  1  0.12576912  0.37834837  0.30079480  1
  O  O262  1  0.12187114  0.36511875  0.53615281  1
  O  O263  1  0.12441581  0.37112461  0.78159955  1
  O  O264  1  0.13015484  0.62800159  0.03314261  1
  O  O265  1  0.12461789  0.62566333  0.29741634  1
  O  O266  1  0.12157643  0.63208799  0.54908955  1
  O  O267  1  0.13387095  0.62945921  0.79973520  1
  O  O268  1  0.12844225  0.87279290  0.03597873  1
  O  O269  1  0.12147851  0.87142566  0.29587412  1
  O  O270  1  0.12178551  0.87375667  0.54837734  1
  O  O271  1  0.13086202  0.87607067  0.80328872  1
  O  O272  1  0.37359458  0.12358092  0.04953237  1
  O  O273  1  0.37426024  0.12422155  0.29593952  1
  O  O274  1  0.37693302  0.12052940  0.54470768  1
  O  O275  1  0.36807334  0.12519974  0.79796901  1
  O  O276  1  0.36954609  0.37698712  0.03658303  1
  O  O277  1  0.37361028  0.37815829  0.29467001  1
  O  O278  1  0.38032140  0.37586728  0.52559052  1
  O  O279  1  0.36858241  0.37548271  0.79705836  1
  O  O280  1  0.38146450  0.62642692  0.04724964  1
  O  O281  1  0.37481845  0.62473578  0.30424580  1
  O  O282  1  0.36686638  0.62883113  0.53290884  1
  O  O283  1  0.37065868  0.62600660  0.79577093  1
  O  O284  1  0.37469918  0.87652178  0.05284260  1
  O  O285  1  0.36711691  0.87509596  0.28378586  1
  O  O286  1  0.37361205  0.87825016  0.54962433  1
  O  O287  1  0.36814462  0.87967959  0.78467815  1
  O  O288  1  0.62041886  0.13272697  0.03790542  1
  O  O289  1  0.62903276  0.12443855  0.28237927  1
  O  O290  1  0.62820602  0.12258536  0.55247980  1
  O  O291  1  0.61818292  0.12856991  0.78324187  1
  O  O292  1  0.62134130  0.36780064  0.03528475  1
  O  O293  1  0.62655787  0.37531088  0.29849973  1
  O  O294  1  0.62395225  0.36505033  0.54202159  1
  O  O295  1  0.62296465  0.36782584  0.77652604  1
  O  O296  1  0.62281760  0.62258074  0.04929204  1
  O  O297  1  0.62680537  0.63228823  0.28476215  1
  O  O298  1  0.62724282  0.62830235  0.54829946  1
  O  O299  1  0.62170863  0.62713931  0.78024987  1
  O  O300  1  0.61798163  0.87840281  0.03745792  1
  O  O301  1  0.62755560  0.87553424  0.28196898  1
  O  O302  1  0.62557976  0.87906203  0.54164514  1
  O  O303  1  0.61927938  0.87777475  0.77897361  1
  O  O304  1  0.87647405  0.13080731  0.04476048  1
  O  O305  1  0.87392578  0.12433078  0.29682479  1
  O  O306  1  0.87207078  0.12463197  0.54719219  1
  O  O307  1  0.87982081  0.12162309  0.79807386  1
  O  O308  1  0.87534539  0.37202553  0.04866007  1
  O  O309  1  0.87466566  0.38626335  0.28573996  1
  O  O310  1  0.87250269  0.37175789  0.55069750  1
  O  O311  1  0.88495339  0.37106982  0.78192278  1
  O  O312  1  0.87341141  0.61956346  0.04346675  1
  O  O313  1  0.87327616  0.61699646  0.28659918  1
  O  O314  1  0.88297282  0.62632033  0.54708977  1
  O  O315  1  0.87558510  0.62654316  0.77477950  1
  O  O316  1  0.87968059  0.87763712  0.02512659  1
  O  O317  1  0.87817644  0.87506854  0.29693392  1
  O  O318  1  0.87563791  0.87664092  0.55350842  1
  O  O319  1  0.88179653  0.88524859  0.79274332  1
