# generated using pymatgen
data_VFe(PbO3)2
_symmetry_space_group_name_H-M   'P 1'
_cell_length_a   15.39038486
_cell_length_b   15.37244646
_cell_length_c   18.56136481
_cell_angle_alpha   90.01486215
_cell_angle_beta   89.97197241
_cell_angle_gamma   90.00806182
_symmetry_Int_Tables_number   1
_chemical_formula_structural   VFe(PbO3)2
_chemical_formula_sum   'V32 Fe32 Pb64 O192'
_cell_volume   4391.39299749
_cell_formula_units_Z   32
loop_
 _symmetry_equiv_pos_site_id
 _symmetry_equiv_pos_as_xyz
  1  'x, y, z'
loop_
 _atom_site_type_symbol
 _atom_site_label
 _atom_site_symmetry_multiplicity
 _atom_site_fract_x
 _atom_site_fract_y
 _atom_site_fract_z
 _atom_site_occupancy
  V  V0  1  0.37490201  0.37740697  0.88771729  1
  V  V1  1  0.87162830  0.37337207  0.38738720  1
  V  V2  1  0.36227219  0.12745780  0.13587656  1
  V  V3  1  0.12652868  0.87417044  0.38831315  1
  V  V4  1  0.87464630  0.37529691  0.88957745  1
  V  V5  1  0.87959051  0.87727822  0.14395363  1
  V  V6  1  0.60999089  0.12258817  0.13250997  1
  V  V7  1  0.62652825  0.12328367  0.64058871  1
  V  V8  1  0.87464543  0.12246006  0.88926704  1
  V  V9  1  0.12384959  0.87163885  0.88926576  1
  V  V10  1  0.12804543  0.62905394  0.14506292  1
  V  V11  1  0.87525350  0.87432097  0.88689546  1
  V  V12  1  0.37735224  0.62536153  0.88985373  1
  V  V13  1  0.62480682  0.37646674  0.89295217  1
  V  V14  1  0.62448844  0.62551536  0.38811300  1
  V  V15  1  0.37258756  0.62570555  0.39020773  1
  V  V16  1  0.12199673  0.12583529  0.14122300  1
  V  V17  1  0.87566652  0.62330237  0.38696157  1
  V  V18  1  0.87664837  0.12965468  0.14044644  1
  V  V19  1  0.62594379  0.87397360  0.63722752  1
  V  V20  1  0.87288351  0.62510882  0.89303185  1
  V  V21  1  0.37760987  0.62268040  0.14181123  1
  V  V22  1  0.12604774  0.37521107  0.14402914  1
  V  V23  1  0.12340419  0.87653455  0.63490479  1
  V  V24  1  0.87615232  0.37362713  0.63779754  1
  V  V25  1  0.87335754  0.12339573  0.39017177  1
  V  V26  1  0.62156786  0.12444291  0.38888102  1
  V  V27  1  0.12451627  0.62668786  0.63506597  1
  V  V28  1  0.62799294  0.62575975  0.13861808  1
  V  V29  1  0.62328572  0.62356203  0.89254126  1
  V  V30  1  0.62693807  0.37429487  0.63600702  1
  V  V31  1  0.37244723  0.12397194  0.39239496  1
  Fe  Fe32  1  0.37357270  0.87471676  0.64072115  1
  Fe  Fe33  1  0.87746676  0.62417826  0.13562071  1
  Fe  Fe34  1  0.62336580  0.12704814  0.88602324  1
  Fe  Fe35  1  0.12382559  0.37768453  0.62753115  1
  Fe  Fe36  1  0.87516238  0.87485465  0.63279014  1
  Fe  Fe37  1  0.37578090  0.12459964  0.63475604  1
  Fe  Fe38  1  0.87846437  0.37510977  0.13616305  1
  Fe  Fe39  1  0.87251866  0.12383603  0.63374253  1
  Fe  Fe40  1  0.12199886  0.12429462  0.62529381  1
  Fe  Fe41  1  0.12645543  0.87761967  0.13558863  1
  Fe  Fe42  1  0.12462216  0.12337409  0.39759461  1
  Fe  Fe43  1  0.62645738  0.62511739  0.63121599  1
  Fe  Fe44  1  0.37629068  0.37578626  0.62609970  1
  Fe  Fe45  1  0.12622735  0.62291220  0.88551668  1
  Fe  Fe46  1  0.37236927  0.87623478  0.13983645  1
  Fe  Fe47  1  0.62555732  0.87554167  0.14237407  1
  Fe  Fe48  1  0.12483585  0.62804778  0.38369298  1
  Fe  Fe49  1  0.12382780  0.37675687  0.39642472  1
  Fe  Fe50  1  0.62714131  0.87371681  0.88452734  1
  Fe  Fe51  1  0.87246846  0.62495215  0.63426587  1
  Fe  Fe52  1  0.37493359  0.87236781  0.87895224  1
  Fe  Fe53  1  0.37753402  0.87558490  0.38598246  1
  Fe  Fe54  1  0.37233009  0.37218744  0.14169250  1
  Fe  Fe55  1  0.62285100  0.37370640  0.14067777  1
  Fe  Fe56  1  0.37987043  0.37544101  0.39708619  1
  Fe  Fe57  1  0.62587500  0.87584284  0.38268783  1
  Fe  Fe58  1  0.12351945  0.37921662  0.88077076  1
  Fe  Fe59  1  0.87419156  0.87366466  0.38818328  1
  Fe  Fe60  1  0.62836479  0.37384649  0.38608898  1
  Fe  Fe61  1  0.37816679  0.62547164  0.62998212  1
  Fe  Fe62  1  0.37427823  0.12573638  0.88018585  1
  Fe  Fe63  1  0.12295442  0.12790272  0.88216409  1
  Pb  Pb64  1  0.00553305  -0.00486954  -0.00144896  1
  Pb  Pb65  1  0.00575008  0.00509630  0.25568707  1
  Pb  Pb66  1  -0.00136962  0.00147170  0.50057158  1
  Pb  Pb67  1  -0.00053233  0.00677288  0.74319922  1
  Pb  Pb68  1  -0.00250928  0.25534596  -0.00475287  1
  Pb  Pb69  1  0.01287974  0.25055947  0.26192690  1
  Pb  Pb70  1  0.00647580  0.24599205  0.50344988  1
  Pb  Pb71  1  0.01310009  0.24677420  0.74344944  1
  Pb  Pb72  1  -0.00468127  0.50146174  0.00164656  1
  Pb  Pb73  1  0.00712386  0.50111227  0.25277028  1
  Pb  Pb74  1  0.00353654  0.49993823  0.49840369  1
  Pb  Pb75  1  0.01012537  0.50130937  0.75140035  1
  Pb  Pb76  1  -0.00372446  0.74378680  0.00079297  1
  Pb  Pb77  1  -0.00458399  0.75520613  0.25321919  1
  Pb  Pb78  1  -0.00756105  0.75501439  0.49893012  1
  Pb  Pb79  1  0.00074027  0.74416914  0.74602841  1
  Pb  Pb80  1  0.25340059  -0.00224072  -0.00758606  1
  Pb  Pb81  1  0.25070210  -0.00273675  0.25243345  1
  Pb  Pb82  1  0.26296051  -0.00049514  0.50728773  1
  Pb  Pb83  1  0.25304031  0.01316389  0.74637511  1
  Pb  Pb84  1  0.24753109  0.24889001  -0.00897227  1
  Pb  Pb85  1  0.23851520  0.25345098  0.26493383  1
  Pb  Pb86  1  0.24827796  0.25638279  0.50094083  1
  Pb  Pb87  1  0.24740502  0.24946876  0.73424050  1
  Pb  Pb88  1  0.25129522  0.49799304  -0.00142359  1
  Pb  Pb89  1  0.24389979  0.49663737  0.25928521  1
  Pb  Pb90  1  0.24954679  0.49447168  0.49868794  1
  Pb  Pb91  1  0.24458496  0.49618355  0.74126596  1
  Pb  Pb92  1  0.25038443  0.76142470  0.00323159  1
  Pb  Pb93  1  0.25080836  0.75105867  0.25223958  1
  Pb  Pb94  1  0.26111253  0.75231707  0.50150245  1
  Pb  Pb95  1  0.25422121  0.75054946  0.74640989  1
  Pb  Pb96  1  0.49592798  -0.00337810  -0.01088710  1
  Pb  Pb97  1  0.49749624  -0.01422008  0.25483972  1
  Pb  Pb98  1  0.49432480  -0.00294070  0.50298924  1
  Pb  Pb99  1  0.49075110  0.00061416  0.75274631  1
  Pb  Pb100  1  0.49771479  0.25592360  0.00132823  1
  Pb  Pb101  1  0.49418692  0.26528611  0.26234785  1
  Pb  Pb102  1  0.49656765  0.25196639  0.50197051  1
  Pb  Pb103  1  0.49602352  0.24389310  0.74745824  1
  Pb  Pb104  1  0.49952877  0.49032789  0.00792032  1
  Pb  Pb105  1  0.49701209  0.49033074  0.25546421  1
  Pb  Pb106  1  0.50141317  0.50329925  0.49969441  1
  Pb  Pb107  1  0.49635644  0.50287447  0.74086723  1
  Pb  Pb108  1  0.49805716  0.76348928  0.00130674  1
  Pb  Pb109  1  0.49861962  0.75428345  0.25028868  1
  Pb  Pb110  1  0.49881095  0.74840237  0.49911927  1
  Pb  Pb111  1  0.49953780  0.75589277  0.74659778  1
  Pb  Pb112  1  0.73976944  -0.00378933  0.00105760  1
  Pb  Pb113  1  0.75263274  -0.00502038  0.25284129  1
  Pb  Pb114  1  0.75522698  -0.00569893  0.49920718  1
  Pb  Pb115  1  0.74118237  -0.00219981  0.75154678  1
  Pb  Pb116  1  0.74831913  0.25784276  0.00343806  1
  Pb  Pb117  1  0.74582867  0.25273426  0.24746526  1
  Pb  Pb118  1  0.75686011  0.24404615  0.50156239  1
  Pb  Pb119  1  0.74431973  0.24478292  0.75261406  1
  Pb  Pb120  1  0.75692858  0.49803689  0.00557832  1
  Pb  Pb121  1  0.75137986  0.49569372  0.24487316  1
  Pb  Pb122  1  0.75026350  0.51136596  0.50177261  1
  Pb  Pb123  1  0.75059867  0.50136312  0.74688980  1
  Pb  Pb124  1  0.74460188  0.75356464  0.00278600  1
  Pb  Pb125  1  0.75298305  0.75978002  0.25401422  1
  Pb  Pb126  1  0.75197809  0.74695696  0.49948793  1
  Pb  Pb127  1  0.74886368  0.75181517  0.74605766  1
  O  O128  1  0.12275453  0.00493344  0.16741970  1
  O  O129  1  0.12023614  -0.00919267  0.41254949  1
  O  O130  1  0.12222516  -0.00698785  0.65460577  1
  O  O131  1  0.12195619  -0.00723016  0.91094791  1
  O  O132  1  0.12412300  0.25117493  0.17111098  1
  O  O133  1  0.12275868  0.25028869  0.41873300  1
  O  O134  1  0.12065030  0.25190229  0.65121718  1
  O  O135  1  0.12216972  0.25475766  0.91196874  1
  O  O136  1  0.12904577  0.49643912  0.16685486  1
  O  O137  1  0.12216815  0.50560044  0.41586204  1
  O  O138  1  0.12121936  0.50660753  0.65758529  1
  O  O139  1  0.12639350  0.50039100  0.91956038  1
  O  O140  1  0.12835129  0.74549017  0.16298604  1
  O  O141  1  0.12510801  0.75508033  0.41371862  1
  O  O142  1  0.12329468  0.74706715  0.66171874  1
  O  O143  1  0.12261818  0.75221921  0.91403611  1
  O  O144  1  0.37324929  0.01306496  0.16494528  1
  O  O145  1  0.37809158  0.00370100  0.41589515  1
  O  O146  1  0.37634712  -0.00063211  0.66580120  1
  O  O147  1  0.37170126  -0.00246245  0.90763710  1
  O  O148  1  0.37690881  0.23835947  0.16648581  1
  O  O149  1  0.37827856  0.24096396  0.41572932  1
  O  O150  1  0.37876256  0.25169495  0.65828098  1
  O  O151  1  0.37646549  0.26017755  0.90811449  1
  O  O152  1  0.37293689  0.50572010  0.16848223  1
  O  O153  1  0.38152936  0.50913796  0.41215703  1
  O  O154  1  0.37906611  0.49978678  0.65899253  1
  O  O155  1  0.37925329  0.49912058  0.91734321  1
  O  O156  1  0.37146506  0.74147758  0.16726781  1
  O  O157  1  0.37763115  0.74667602  0.41277415  1
  O  O158  1  0.37436903  0.74846589  0.66511499  1
  O  O159  1  0.37564092  0.74263694  0.91109371  1
  O  O160  1  0.62853196  0.01209003  0.16540245  1
  O  O161  1  0.62824274  0.00899730  0.41452256  1
  O  O162  1  0.62787860  0.00268271  0.66104005  1
  O  O163  1  0.62860394  0.00071827  0.91505329  1
  O  O164  1  0.62748901  0.23284714  0.16452282  1
  O  O165  1  0.62925489  0.24066457  0.41575483  1
  O  O166  1  0.62745857  0.24990031  0.66372592  1
  O  O167  1  0.62636815  0.25533063  0.91736503  1
  O  O168  1  0.62086768  0.50774198  0.16278793  1
  O  O169  1  0.62608489  0.50617934  0.41058920  1
  O  O170  1  0.62797350  0.49174866  0.65827137  1
  O  O171  1  0.62448798  0.50029876  0.92130183  1
  O  O172  1  0.62268938  0.74274163  0.16605671  1
  O  O173  1  0.62882551  0.74390662  0.40954548  1
  O  O174  1  0.62705343  0.75668955  0.65728427  1
  O  O175  1  0.62646639  0.74407677  0.91746043  1
  O  O176  1  0.88170580  -0.00248860  0.16687400  1
  O  O177  1  0.87470748  0.00533332  0.40948363  1
  O  O178  1  0.87387334  -0.00134567  0.66381273  1
  O  O179  1  0.87745725  0.00154975  0.91301279  1
  O  O180  1  0.88027773  0.24544675  0.16227412  1
  O  O181  1  0.87090348  0.25250265  0.41009468  1
  O  O182  1  0.87078513  0.25763040  0.66452244  1
  O  O183  1  0.87572266  0.24845796  0.91297618  1
  O  O184  1  0.87671079  0.50028851  0.16733433  1
  O  O185  1  0.87186423  0.50179704  0.40959958  1
  O  O186  1  0.86783736  0.49227787  0.66352299  1
  O  O187  1  0.87205825  0.49987075  0.91835769  1
  O  O188  1  0.87699222  0.75389309  0.16525592  1
  O  O189  1  0.87101738  0.74176537  0.41022180  1
  O  O190  1  0.87315157  0.75063440  0.66573143  1
  O  O191  1  0.87589875  0.75101621  0.91679284  1
  O  O192  1  -0.00120119  0.12422570  0.17100393  1
  O  O193  1  -0.01056158  0.12736930  0.41341627  1
  O  O194  1  -0.00194882  0.12517647  0.66047819  1
  O  O195  1  -0.00635761  0.12508679  0.91595543  1
  O  O196  1  0.00866180  0.37516953  0.16682268  1
  O  O197  1  -0.01363271  0.37701317  0.41402151  1
  O  O198  1  -0.00807212  0.37840065  0.65571926  1
  O  O199  1  -0.00526777  0.37848026  0.91208759  1
  O  O200  1  0.00904040  0.62250875  0.16446671  1
  O  O201  1  -0.00785130  0.62579838  0.40829051  1
  O  O202  1  0.00273314  0.62529308  0.66014942  1
  O  O203  1  -0.00409427  0.62406608  0.91642143  1
  O  O204  1  -0.00101537  0.87324131  0.16708999  1
  O  O205  1  0.00333169  0.87132331  0.41319707  1
  O  O206  1  0.00729974  0.87018616  0.66216887  1
  O  O207  1  -0.00022960  0.87346490  0.91730847  1
  O  O208  1  0.24776127  0.12736435  0.16703257  1
  O  O209  1  0.25659263  0.12211418  0.41240199  1
  O  O210  1  0.24655264  0.12350805  0.65521329  1
  O  O211  1  0.24829913  0.12742861  0.91199248  1
  O  O212  1  0.24471891  0.37104654  0.17048010  1
  O  O213  1  0.25283325  0.37655116  0.41452714  1
  O  O214  1  0.24941955  0.37838573  0.65258855  1
  O  O215  1  0.25760462  0.38042894  0.90737859  1
  O  O216  1  0.24951147  0.62183149  0.16914298  1
  O  O217  1  0.25631673  0.62704952  0.40911057  1
  O  O218  1  0.24277319  0.62521965  0.65691220  1
  O  O219  1  0.25968854  0.62097792  0.91335064  1
  O  O220  1  0.24887611  0.87738172  0.17000324  1
  O  O221  1  0.24528779  0.87524867  0.41075769  1
  O  O222  1  0.23897296  0.87107503  0.66289087  1
  O  O223  1  0.24359927  0.87031392  0.90800878  1
  O  O224  1  0.49751310  0.12251264  0.13319947  1
  O  O225  1  0.50340953  0.12397830  0.41326075  1
  O  O226  1  0.50942250  0.12554460  0.66248418  1
  O  O227  1  0.49777947  0.12679975  0.91468583  1
  O  O228  1  0.49824698  0.37200176  0.17052262  1
  O  O229  1  0.50737549  0.37250339  0.41850874  1
  O  O230  1  0.51019387  0.37212617  0.65825748  1
  O  O231  1  0.49789848  0.37742766  0.91811814  1
  O  O232  1  0.49608564  0.62591871  0.16283968  1
  O  O233  1  0.50387641  0.62808726  0.41039318  1
  O  O234  1  0.50432084  0.62562522  0.66256209  1
  O  O235  1  0.49665792  0.62309996  0.91847880  1
  O  O236  1  0.49870657  0.87704707  0.16520751  1
  O  O237  1  0.50298140  0.87582668  0.41232671  1
  O  O238  1  0.50876710  0.87742430  0.66083494  1
  O  O239  1  0.50012511  0.87149733  0.91080959  1
  O  O240  1  0.76526555  0.12082727  0.16443243  1
  O  O241  1  0.75220873  0.12523826  0.41277861  1
  O  O242  1  0.74510544  0.12741177  0.66652828  1
  O  O243  1  0.76015196  0.12649689  0.91557572  1
  O  O244  1  0.74952860  0.37149452  0.16425747  1
  O  O245  1  0.75589124  0.37617242  0.41452412  1
  O  O246  1  0.74582860  0.37221578  0.66651900  1
  O  O247  1  0.75035187  0.37604014  0.91786249  1
  O  O248  1  0.74454328  0.62498743  0.15951656  1
  O  O249  1  0.75040513  0.62279942  0.41035755  1
  O  O250  1  0.74768135  0.62375788  0.66881416  1
  O  O251  1  0.74871733  0.62352258  0.91898560  1
  O  O252  1  0.75700300  0.87706559  0.16616877  1
  O  O253  1  0.74901882  0.87672311  0.41358726  1
  O  O254  1  0.74376805  0.87731401  0.66202935  1
  O  O255  1  0.75620817  0.87357681  0.91554450  1
  O  O256  1  0.12184444  0.12833434  0.05058132  1
  O  O257  1  0.12067364  0.13101713  0.29561894  1
  O  O258  1  0.11478157  0.12033164  0.52374898  1
  O  O259  1  0.11875273  0.12669464  0.78274516  1
  O  O260  1  0.12743913  0.37429186  0.05357256  1
  O  O261  1  0.12467131  0.36979134  0.29370438  1
  O  O262  1  0.12017335  0.38279251  0.52624803  1
  O  O263  1  0.12213815  0.38569131  0.78063955  1
  O  O264  1  0.13109528  0.62386171  0.05440688  1
  O  O265  1  0.12811885  0.62082379  0.28420270  1
  O  O266  1  0.12276101  0.62871999  0.54429689  1
  O  O267  1  0.12112664  0.61831014  0.78638293  1
  O  O268  1  0.12904037  0.87594099  0.03650364  1
  O  O269  1  0.12451536  0.87360749  0.29656464  1
  O  O270  1  0.12327640  0.87184699  0.54412423  1
  O  O271  1  0.11835008  0.87053957  0.79914893  1
  O  O272  1  0.35340054  0.12881389  0.04498768  1
  O  O273  1  0.37558903  0.12307833  0.30165559  1
  O  O274  1  0.38049352  0.11337137  0.53426758  1
  O  O275  1  0.37634011  0.12519901  0.77933453  1
  O  O276  1  0.37813748  0.37573482  0.04244871  1
  O  O277  1  0.38624612  0.37192802  0.29424666  1
  O  O278  1  0.37965169  0.37502267  0.52480959  1
  O  O279  1  0.38154016  0.38285992  0.79754198  1
  O  O280  1  0.37312398  0.62354306  0.05142011  1
  O  O281  1  0.37630798  0.62743643  0.29906485  1
  O  O282  1  0.38015603  0.63294475  0.53004548  1
  O  O283  1  0.37976419  0.62033029  0.79922917  1
  O  O284  1  0.36949940  0.86926320  0.03933438  1
  O  O285  1  0.37819728  0.88095165  0.28540641  1
  O  O286  1  0.37018936  0.87725344  0.53850679  1
  O  O287  1  0.37703552  0.86901366  0.77887146  1
  O  O288  1  0.63734960  0.12322658  0.04334231  1
  O  O289  1  0.62112935  0.12477853  0.29834838  1
  O  O290  1  0.62904278  0.12471621  0.54995443  1
  O  O291  1  0.62968972  0.12896064  0.78651909  1
  O  O292  1  0.61808965  0.36919408  0.04069483  1
  O  O293  1  0.62366973  0.36800618  0.28553748  1
  O  O294  1  0.63132998  0.37097351  0.54545028  1
  O  O295  1  0.62269095  0.37723408  0.80233878  1
  O  O296  1  0.62427496  0.62842384  0.04799600  1
  O  O297  1  0.62492908  0.62513274  0.29741618  1
  O  O298  1  0.63122483  0.62378423  0.53156377  1
  O  O299  1  0.62333335  0.62293583  0.80201407  1
  O  O300  1  0.63105369  0.87252887  0.04244668  1
  O  O301  1  0.62705381  0.87962762  0.28071490  1
  O  O302  1  0.62749121  0.87857046  0.54625667  1
  O  O303  1  0.63099366  0.87516000  0.78530901  1
  O  O304  1  0.87922867  0.12564743  0.04971972  1
  O  O305  1  0.87383079  0.12572082  0.29927708  1
  O  O306  1  0.86903686  0.12749505  0.53396696  1
  O  O307  1  0.87539289  0.12345521  0.79852703  1
  O  O308  1  0.87557123  0.37641729  0.03631778  1
  O  O309  1  0.87154952  0.37426412  0.29634278  1
  O  O310  1  0.86999412  0.37263245  0.54692170  1
  O  O311  1  0.87132171  0.37804596  0.79911984  1
  O  O312  1  0.87987011  0.62240652  0.03626452  1
  O  O313  1  0.87328217  0.62383936  0.29582804  1
  O  O314  1  0.86489196  0.62505460  0.53479306  1
  O  O315  1  0.87213272  0.62268239  0.80216164  1
  O  O316  1  0.87887260  0.87787053  0.05324022  1
  O  O317  1  0.87389676  0.86896247  0.28731281  1
  O  O318  1  0.87718971  0.87192701  0.53202916  1
  O  O319  1  0.87656462  0.87376662  0.79645446  1
