# generated using pymatgen
data_VFe(PbO3)2
_symmetry_space_group_name_H-M   'P 1'
_cell_length_a   15.37763850
_cell_length_b   15.37808557
_cell_length_c   18.55199029
_cell_angle_alpha   89.99643605
_cell_angle_beta   90.01303102
_cell_angle_gamma   90.01753735
_symmetry_Int_Tables_number   1
_chemical_formula_structural   VFe(PbO3)2
_chemical_formula_sum   'V32 Fe32 Pb64 O192'
_cell_volume   4387.14911718
_cell_formula_units_Z   32
loop_
 _symmetry_equiv_pos_site_id
 _symmetry_equiv_pos_as_xyz
  1  'x, y, z'
loop_
 _atom_site_type_symbol
 _atom_site_label
 _atom_site_symmetry_multiplicity
 _atom_site_fract_x
 _atom_site_fract_y
 _atom_site_fract_z
 _atom_site_occupancy
  V  V0  1  0.62553903  0.87500520  0.38804155  1
  V  V1  1  0.62531475  0.62586694  0.64533897  1
  V  V2  1  0.62410627  0.87770249  0.64365505  1
  V  V3  1  0.12293981  0.11837728  0.64116917  1
  V  V4  1  0.62392540  0.37911625  0.88669318  1
  V  V5  1  0.62643514  0.37476493  0.39083695  1
  V  V6  1  0.12466267  0.12638665  0.88657925  1
  V  V7  1  0.62613633  0.37528672  0.13663573  1
  V  V8  1  0.37756799  0.87455535  0.64297600  1
  V  V9  1  0.87615888  0.12389536  0.13415820  1
  V  V10  1  0.37110172  0.37570454  0.13467428  1
  V  V11  1  0.62443407  0.87219762  0.89214766  1
  V  V12  1  0.87245100  0.37573590  0.13906235  1
  V  V13  1  0.12669123  0.87623910  0.88884777  1
  V  V14  1  0.37614583  0.62672705  0.38988565  1
  V  V15  1  0.37219683  0.37548786  0.88777113  1
  V  V16  1  0.62396219  0.12255094  0.65067440  1
  V  V17  1  0.87421978  0.87501208  0.64014697  1
  V  V18  1  0.87641382  0.87493830  0.38818063  1
  V  V19  1  0.12105570  0.87349140  0.13841521  1
  V  V20  1  0.62321020  0.37251412  0.64269142  1
  V  V21  1  0.12299222  0.62495447  0.39054175  1
  V  V22  1  0.62287711  0.12614343  0.38728107  1
  V  V23  1  0.37590877  0.37512334  0.39263990  1
  V  V24  1  0.37503822  0.62448401  0.89120780  1
  V  V25  1  0.12364576  0.62624154  0.88924089  1
  V  V26  1  0.37606420  0.12459451  0.38606554  1
  V  V27  1  0.87246678  0.62430281  0.88599050  1
  V  V28  1  0.37251948  0.12539133  0.64500877  1
  V  V29  1  0.87774118  0.62541464  0.13788009  1
  V  V30  1  0.12729888  0.37160907  0.63880000  1
  V  V31  1  0.87234418  0.37254868  0.64349313  1
  Fe  Fe32  1  0.12629004  0.37711665  0.88530565  1
  Fe  Fe33  1  0.12549176  0.37464523  0.38623208  1
  Fe  Fe34  1  0.62325726  0.62503671  0.88547184  1
  Fe  Fe35  1  0.87422069  0.62538137  0.63348941  1
  Fe  Fe36  1  0.37812073  0.87603693  0.37966968  1
  Fe  Fe37  1  0.12456266  0.12477964  0.37964956  1
  Fe  Fe38  1  0.12776518  0.87573195  0.38495587  1
  Fe  Fe39  1  0.12519290  0.62300830  0.13565157  1
  Fe  Fe40  1  0.37554011  0.87405334  0.12660791  1
  Fe  Fe41  1  0.62441535  0.12481670  0.88988314  1
  Fe  Fe42  1  0.37425162  0.12816703  0.12741552  1
  Fe  Fe43  1  0.87679457  0.87404797  0.12563509  1
  Fe  Fe44  1  0.37596603  0.62352965  0.63545380  1
  Fe  Fe45  1  0.87174108  0.62664183  0.39079433  1
  Fe  Fe46  1  0.12405892  0.12701339  0.13962799  1
  Fe  Fe47  1  0.37265407  0.87330346  0.89877849  1
  Fe  Fe48  1  0.63102684  0.87550275  0.12820306  1
  Fe  Fe49  1  0.87514730  0.12444684  0.64714794  1
  Fe  Fe50  1  0.12686351  0.87696678  0.63480026  1
  Fe  Fe51  1  0.87721958  0.12546693  0.88029249  1
  Fe  Fe52  1  0.87635372  0.37762922  0.88212300  1
  Fe  Fe53  1  0.37283588  0.12620225  0.89516135  1
  Fe  Fe54  1  0.87495148  0.37413009  0.38640824  1
  Fe  Fe55  1  0.62723864  0.62242857  0.13666922  1
  Fe  Fe56  1  0.37266445  0.62214505  0.13386494  1
  Fe  Fe57  1  0.12468252  0.62819292  0.63412221  1
  Fe  Fe58  1  0.87152793  0.12408072  0.38496908  1
  Fe  Fe59  1  0.37765508  0.37255828  0.63536800  1
  Fe  Fe60  1  0.12034168  0.37591342  0.13374964  1
  Fe  Fe61  1  0.87676549  0.87296744  0.89690625  1
  Fe  Fe62  1  0.62833983  0.12911675  0.12610208  1
  Fe  Fe63  1  0.62287104  0.62356744  0.38157133  1
  Pb  Pb64  1  -0.00348031  0.00066989  -0.00109059  1
  Pb  Pb65  1  0.00928052  0.00175394  0.25225679  1
  Pb  Pb66  1  0.00034483  0.00544943  0.49617150  1
  Pb  Pb67  1  -0.01377963  -0.00673301  0.75877923  1
  Pb  Pb68  1  0.00544893  0.25638273  -0.00420266  1
  Pb  Pb69  1  -0.00080786  0.25111201  0.25121013  1
  Pb  Pb70  1  -0.00151421  0.24608051  0.49344282  1
  Pb  Pb71  1  0.00136885  0.25952906  0.75489927  1
  Pb  Pb72  1  0.00878296  0.49579542  -0.00027035  1
  Pb  Pb73  1  -0.00129459  0.49252531  0.25233559  1
  Pb  Pb74  1  -0.00413384  0.50194858  0.49758008  1
  Pb  Pb75  1  0.00166217  0.49388972  0.74848714  1
  Pb  Pb76  1  0.00135810  0.74667280  0.00121595  1
  Pb  Pb77  1  0.00156590  0.75306502  0.24964140  1
  Pb  Pb78  1  0.01227608  0.74952736  0.50500199  1
  Pb  Pb79  1  -0.00095147  0.74964842  0.74539353  1
  Pb  Pb80  1  0.25243602  0.00284163  0.00404922  1
  Pb  Pb81  1  0.25209221  -0.00164898  0.24183206  1
  Pb  Pb82  1  0.24545428  -0.00624352  0.49404283  1
  Pb  Pb83  1  0.26627015  -0.00381477  0.76227419  1
  Pb  Pb84  1  0.23953710  0.23939747  0.00738958  1
  Pb  Pb85  1  0.23845032  0.24794286  0.24643275  1
  Pb  Pb86  1  0.24976599  0.25260300  0.49670471  1
  Pb  Pb87  1  0.24859014  0.24738308  0.75176696  1
  Pb  Pb88  1  0.24735932  0.50514990  0.00276763  1
  Pb  Pb89  1  0.24167625  0.49712851  0.24767735  1
  Pb  Pb90  1  0.25313398  0.50888785  0.50277764  1
  Pb  Pb91  1  0.24954482  0.49996858  0.74394916  1
  Pb  Pb92  1  0.25274430  0.74138531  0.00564467  1
  Pb  Pb93  1  0.25548370  0.75692928  0.24528689  1
  Pb  Pb94  1  0.24586070  0.75323711  0.50151462  1
  Pb  Pb95  1  0.25086814  0.75157753  0.74759788  1
  Pb  Pb96  1  0.49502280  0.00091579  -0.00058814  1
  Pb  Pb97  1  0.49848177  -0.00243470  0.23131226  1
  Pb  Pb98  1  0.50098939  0.00003969  0.49744838  1
  Pb  Pb99  1  0.49425575  0.00277171  0.76354009  1
  Pb  Pb100  1  0.50126338  0.24441837  -0.00164087  1
  Pb  Pb101  1  0.50160200  0.24713749  0.24146488  1
  Pb  Pb102  1  0.49754576  0.25392597  0.50341637  1
  Pb  Pb103  1  0.49849411  0.23753099  0.76070455  1
  Pb  Pb104  1  0.49642279  0.50724609  0.00203967  1
  Pb  Pb105  1  0.50612562  0.50599761  0.24714896  1
  Pb  Pb106  1  0.49283353  0.49947299  0.50445373  1
  Pb  Pb107  1  0.50078688  0.50298373  0.75021232  1
  Pb  Pb108  1  0.50225234  0.75551066  0.00678422  1
  Pb  Pb109  1  0.50041748  0.75298426  0.23613454  1
  Pb  Pb110  1  0.49669057  0.74500011  0.49797403  1
  Pb  Pb111  1  0.50269337  0.74938771  0.75643659  1
  Pb  Pb112  1  0.74841926  -0.00147186  -0.00534129  1
  Pb  Pb113  1  0.75219917  0.00229319  0.23838123  1
  Pb  Pb114  1  0.75392640  0.00517297  0.50413164  1
  Pb  Pb115  1  0.75515966  -0.00127625  0.75991676  1
  Pb  Pb116  1  0.75227962  0.24441963  -0.00856433  1
  Pb  Pb117  1  0.76211431  0.25022460  0.25228085  1
  Pb  Pb118  1  0.75787263  0.24205601  0.50388456  1
  Pb  Pb119  1  0.74867691  0.24144024  0.75839392  1
  Pb  Pb120  1  0.74499570  0.50506163  -0.00077108  1
  Pb  Pb121  1  0.75816231  0.50743371  0.25637434  1
  Pb  Pb122  1  0.75291518  0.50620489  0.49994500  1
  Pb  Pb123  1  0.75468165  0.49691056  0.75125458  1
  Pb  Pb124  1  0.73954191  0.74927115  0.00430560  1
  Pb  Pb125  1  0.74907563  0.74497370  0.24497815  1
  Pb  Pb126  1  0.75046661  0.74556272  0.49993143  1
  Pb  Pb127  1  0.74766705  0.74987403  0.75384715  1
  O  O128  1  0.12060874  -0.00526032  0.16018746  1
  O  O129  1  0.12630704  0.00131054  0.41491180  1
  O  O130  1  0.12747034  0.00430727  0.66102002  1
  O  O131  1  0.12499678  -0.00323950  0.90918922  1
  O  O132  1  0.12127675  0.25364217  0.16551424  1
  O  O133  1  0.12892656  0.24769381  0.41390719  1
  O  O134  1  0.12398272  0.25098960  0.66640295  1
  O  O135  1  0.12588766  0.24517514  0.90710696  1
  O  O136  1  0.12182424  0.49842884  0.16692386  1
  O  O137  1  0.12861895  0.50810518  0.41580560  1
  O  O138  1  0.12402743  0.49134158  0.65763477  1
  O  O139  1  0.12651818  0.50763973  0.91065900  1
  O  O140  1  0.12038647  0.75374037  0.16360842  1
  O  O141  1  0.12843379  0.74538451  0.41373953  1
  O  O142  1  0.12660080  0.75498906  0.66765342  1
  O  O143  1  0.12741595  0.74602598  0.91353205  1
  O  O144  1  0.37400333  0.00087246  0.15120087  1
  O  O145  1  0.38045744  0.00699302  0.41008359  1
  O  O146  1  0.37658374  -0.00061473  0.67236256  1
  O  O147  1  0.37193717  -0.00006056  0.91916177  1
  O  O148  1  0.37832647  0.26060050  0.16260761  1
  O  O149  1  0.37830153  0.24576345  0.41554217  1
  O  O150  1  0.37501929  0.24678594  0.66827613  1
  O  O151  1  0.37563559  0.26091091  0.90871122  1
  O  O152  1  0.37786184  0.48887205  0.16533031  1
  O  O153  1  0.37769811  0.50255128  0.41691559  1
  O  O154  1  0.37623624  0.49677742  0.66518762  1
  O  O155  1  0.37426040  0.50111578  0.91632934  1
  O  O156  1  0.37360951  0.74972814  0.15791989  1
  O  O157  1  0.37957103  0.74457491  0.40951934  1
  O  O158  1  0.37852107  0.75686951  0.66272083  1
  O  O159  1  0.37107016  0.74016146  0.91281843  1
  O  O160  1  0.63011318  0.00423648  0.15501714  1
  O  O161  1  0.62183224  0.00022036  0.41625430  1
  O  O162  1  0.62307934  -0.00216140  0.67371743  1
  O  O163  1  0.62390475  -0.00760637  0.90906984  1
  O  O164  1  0.62998968  0.25854850  0.16219847  1
  O  O165  1  0.62146933  0.25023302  0.41687805  1
  O  O166  1  0.62626358  0.25411969  0.66978210  1
  O  O167  1  0.62222355  0.26298311  0.91079403  1
  O  O168  1  0.62997584  0.49058133  0.16500286  1
  O  O169  1  0.62065621  0.49182871  0.41295560  1
  O  O170  1  0.62699961  0.49536319  0.66479605  1
  O  O171  1  0.62280085  0.49732159  0.91464132  1
  O  O172  1  0.63004218  0.74814798  0.15919796  1
  O  O173  1  0.62230574  0.75695176  0.40996964  1
  O  O174  1  0.62332551  0.75381700  0.67127736  1
  O  O175  1  0.62500016  0.75007815  0.91555025  1
  O  O176  1  0.87505096  0.00710978  0.15103012  1
  O  O177  1  0.86836195  -0.00732835  0.41628106  1
  O  O178  1  0.87250226  -0.00742454  0.66866384  1
  O  O179  1  0.87938922  0.00155290  0.91592031  1
  O  O180  1  0.87327670  0.25421148  0.16075987  1
  O  O181  1  0.87040006  0.24933794  0.41796992  1
  O  O182  1  0.87344713  0.25568967  0.66798934  1
  O  O183  1  0.87745233  0.25131954  0.90549232  1
  O  O184  1  0.87397087  0.49782349  0.16241744  1
  O  O185  1  0.87211725  0.49922373  0.41816560  1
  O  O186  1  0.87323894  0.49356392  0.66201075  1
  O  O187  1  0.87827343  0.50908331  0.91321275  1
  O  O188  1  0.87692723  0.74323438  0.15691664  1
  O  O189  1  0.86753675  0.75970798  0.41428113  1
  O  O190  1  0.87122998  0.75680531  0.66328486  1
  O  O191  1  0.88006220  0.73882480  0.91371489  1
  O  O192  1  -0.00889977  0.12988220  0.16075360  1
  O  O193  1  -0.00214589  0.12157631  0.41180537  1
  O  O194  1  0.00809781  0.12652345  0.66331754  1
  O  O195  1  0.00844595  0.12323757  0.91004589  1
  O  O196  1  -0.00984526  0.37603477  0.16236606  1
  O  O197  1  0.00125174  0.37631943  0.41829417  1
  O  O198  1  -0.00110113  0.37271905  0.66147897  1
  O  O199  1  0.00120615  0.37886856  0.91417358  1
  O  O200  1  -0.00635087  0.62180752  0.16409536  1
  O  O201  1  0.00527032  0.62802710  0.41080047  1
  O  O202  1  -0.00130168  0.62677700  0.66216736  1
  O  O203  1  0.00475338  0.62515284  0.90964291  1
  O  O204  1  0.00052262  0.87426390  0.16400075  1
  O  O205  1  -0.00808835  0.87533500  0.41037451  1
  O  O206  1  -0.00686979  0.87568119  0.66028868  1
  O  O207  1  0.01193279  0.87026612  0.91645483  1
  O  O208  1  0.25204059  0.12910889  0.16276481  1
  O  O209  1  0.26023331  0.12479934  0.40806531  1
  O  O210  1  0.24573753  0.12816471  0.66890814  1
  O  O211  1  0.24115919  0.12377708  0.91491394  1
  O  O212  1  0.25503678  0.37475825  0.15494806  1
  O  O213  1  0.25496470  0.37604367  0.41709470  1
  O  O214  1  0.24504573  0.37100832  0.66042796  1
  O  O215  1  0.25626570  0.38135041  0.90759417  1
  O  O216  1  0.24921485  0.62180914  0.16709124  1
  O  O217  1  0.25473592  0.62453457  0.41277698  1
  O  O218  1  0.25045630  0.62503910  0.66543555  1
  O  O219  1  0.24914131  0.62261716  0.91395226  1
  O  O220  1  0.24167122  0.87460329  0.15692889  1
  O  O221  1  0.25517504  0.87516473  0.41246306  1
  O  O222  1  0.25923408  0.87800602  0.66314277  1
  O  O223  1  0.23908699  0.87181693  0.91863537  1
  O  O224  1  0.50129388  0.13229113  0.15457684  1
  O  O225  1  0.49861224  0.12647928  0.41760252  1
  O  O226  1  0.49801140  0.12473493  0.67385379  1
  O  O227  1  0.49971831  0.12810195  0.91480217  1
  O  O228  1  0.50618934  0.37498479  0.15783855  1
  O  O229  1  0.50210991  0.37161951  0.41987836  1
  O  O230  1  0.50787626  0.37405317  0.66421065  1
  O  O231  1  0.49850938  0.38141168  0.91342514  1
  O  O232  1  0.49982989  0.61860541  0.16017022  1
  O  O233  1  0.49716430  0.62369920  0.41395544  1
  O  O234  1  0.50282550  0.62542626  0.66913166  1
  O  O235  1  0.49293097  0.62231405  0.91117597  1
  O  O236  1  0.50316522  0.87497016  0.15336039  1
  O  O237  1  0.50540385  0.87738257  0.41492273  1
  O  O238  1  0.49757528  0.87788974  0.67143957  1
  O  O239  1  0.50510587  0.87008744  0.91489597  1
  O  O240  1  0.75756709  0.13087611  0.15879170  1
  O  O241  1  0.74262053  0.12346168  0.41789798  1
  O  O242  1  0.74533535  0.12466626  0.67300225  1
  O  O243  1  0.75083386  0.12618804  0.90824496  1
  O  O244  1  0.75248991  0.37569750  0.16297247  1
  O  O245  1  0.74072478  0.37256754  0.41519653  1
  O  O246  1  0.74913401  0.37408995  0.66802029  1
  O  O247  1  0.74341864  0.38073773  0.90731219  1
  O  O248  1  0.75923045  0.62052769  0.16367236  1
  O  O249  1  0.74327426  0.62580584  0.41848454  1
  O  O250  1  0.74729284  0.62623382  0.66776209  1
  O  O251  1  0.75537523  0.62346592  0.90623778  1
  O  O252  1  0.75641383  0.87544579  0.16012532  1
  O  O253  1  0.74309815  0.87778651  0.41450458  1
  O  O254  1  0.74967117  0.87568315  0.66809832  1
  O  O255  1  0.74519350  0.87109475  0.91143941  1
  O  O256  1  0.12886826  0.13195031  0.03876095  1
  O  O257  1  0.12244769  0.12209619  0.27888888  1
  O  O258  1  0.12717680  0.12271521  0.55020530  1
  O  O259  1  0.12724423  0.12369638  0.79581496  1
  O  O260  1  0.11665967  0.37565312  0.03265221  1
  O  O261  1  0.12312322  0.37904610  0.28648163  1
  O  O262  1  0.12678016  0.36684889  0.54824774  1
  O  O263  1  0.11775479  0.37519075  0.78510820  1
  O  O264  1  0.12771193  0.62309887  0.03554984  1
  O  O265  1  0.12659440  0.62449854  0.29978899  1
  O  O266  1  0.12809136  0.63524615  0.53386336  1
  O  O267  1  0.12658759  0.62815664  0.79833317  1
  O  O268  1  0.11831477  0.87116897  0.04763046  1
  O  O269  1  0.11946492  0.87690529  0.28542824  1
  O  O270  1  0.12810056  0.86886106  0.53468533  1
  O  O271  1  0.12723266  0.87286922  0.79765680  1
  O  O272  1  0.36728463  0.13424971  0.02604737  1
  O  O273  1  0.38116223  0.12862189  0.29570867  1
  O  O274  1  0.37323562  0.12123631  0.55446198  1
  O  O275  1  0.37293498  0.12082734  0.79285515  1
  O  O276  1  0.37520586  0.37730679  0.04373473  1
  O  O277  1  0.37929328  0.37556236  0.30228161  1
  O  O278  1  0.38298910  0.37205038  0.53559378  1
  O  O279  1  0.37661125  0.37985593  0.79667701  1
  O  O280  1  0.36787500  0.61726585  0.03350203  1
  O  O281  1  0.37602014  0.62104811  0.29960757  1
  O  O282  1  0.38097460  0.62307405  0.53564291  1
  O  O283  1  0.37191822  0.62067524  0.79997447  1
  O  O284  1  0.37562651  0.86853339  0.02472721  1
  O  O285  1  0.37575255  0.87592347  0.28087618  1
  O  O286  1  0.38258426  0.87985288  0.55228531  1
  O  O287  1  0.36934443  0.87998751  0.79730327  1
  O  O288  1  0.63030684  0.13494128  0.02587294  1
  O  O289  1  0.62355823  0.12653408  0.29672015  1
  O  O290  1  0.62112318  0.12316785  0.55972419  1
  O  O291  1  0.61931020  0.13253825  0.78808204  1
  O  O292  1  0.62957813  0.37775229  0.04586030  1
  O  O293  1  0.62453649  0.37200425  0.30033426  1
  O  O294  1  0.62627599  0.37092661  0.55224355  1
  O  O295  1  0.62074898  0.38038209  0.79577616  1
  O  O296  1  0.63389981  0.61925106  0.03516854  1
  O  O297  1  0.62936100  0.61887262  0.28215919  1
  O  O298  1  0.62250783  0.62889046  0.55405868  1
  O  O299  1  0.62043754  0.62890977  0.78584916  1
  O  O300  1  0.62977634  0.86754138  0.02787773  1
  O  O301  1  0.62617428  0.87891835  0.29775679  1
  O  O302  1  0.62229386  0.87643956  0.55308953  1
  O  O303  1  0.62309189  0.86691090  0.80037340  1
  O  O304  1  0.87619764  0.13056362  0.04294274  1
  O  O305  1  0.86827974  0.12744256  0.28584384  1
  O  O306  1  0.86592475  0.12082346  0.54685085  1
  O  O307  1  0.87656522  0.11525840  0.77840672  1
  O  O308  1  0.87204263  0.37694614  0.04817980  1
  O  O309  1  0.87332800  0.37160125  0.28642810  1
  O  O310  1  0.86887172  0.37024055  0.55276148  1
  O  O311  1  0.88077062  0.38399341  0.78228411  1
  O  O312  1  0.87634285  0.62145121  0.04686859  1
  O  O313  1  0.86717287  0.62446234  0.29130268  1
  O  O314  1  0.86790702  0.62714568  0.53350400  1
  O  O315  1  0.87571346  0.62447165  0.79454160  1
  O  O316  1  0.88255999  0.87285420  0.02509361  1
  O  O317  1  0.87381067  0.87625857  0.29742742  1
  O  O318  1  0.86972291  0.87822019  0.54940558  1
  O  O319  1  0.88137780  0.87911546  0.79577168  1
