# generated using pymatgen
data_VFe(PbO3)2
_symmetry_space_group_name_H-M   'P 1'
_cell_length_a   15.38344152
_cell_length_b   15.38441904
_cell_length_c   18.53541940
_cell_angle_alpha   90.02021376
_cell_angle_beta   90.01211357
_cell_angle_gamma   89.99979966
_symmetry_Int_Tables_number   1
_chemical_formula_structural   VFe(PbO3)2
_chemical_formula_sum   'V32 Fe32 Pb64 O192'
_cell_volume   4386.69041854
_cell_formula_units_Z   32
loop_
 _symmetry_equiv_pos_site_id
 _symmetry_equiv_pos_as_xyz
  1  'x, y, z'
loop_
 _atom_site_type_symbol
 _atom_site_label
 _atom_site_symmetry_multiplicity
 _atom_site_fract_x
 _atom_site_fract_y
 _atom_site_fract_z
 _atom_site_occupancy
  V  V0  1  0.87919761  0.12406685  0.38504020  1
  V  V1  1  0.37629544  0.12033670  0.14764641  1
  V  V2  1  0.87343688  0.12334379  0.63703103  1
  V  V3  1  0.12367273  0.12450191  0.63619671  1
  V  V4  1  0.87357320  0.12374574  0.89184532  1
  V  V5  1  0.12627507  0.37719009  0.39561668  1
  V  V6  1  0.37603046  0.37212521  0.63818079  1
  V  V7  1  0.12425413  0.37759103  0.13631194  1
  V  V8  1  0.87248329  0.87314025  0.88971209  1
  V  V9  1  0.12258666  0.87574809  0.64078727  1
  V  V10  1  0.62366677  0.87143414  0.14137742  1
  V  V11  1  0.37632143  0.12739743  0.88910867  1
  V  V12  1  0.87606634  0.62324636  0.13898096  1
  V  V13  1  0.62458525  0.37597031  0.63798388  1
  V  V14  1  0.62328589  0.62647350  0.88814477  1
  V  V15  1  0.37116130  0.87308813  0.39074281  1
  V  V16  1  0.62417772  0.12511518  0.63339141  1
  V  V17  1  0.12760157  0.87300606  0.14074572  1
  V  V18  1  0.37457390  0.63133213  0.65645028  1
  V  V19  1  0.87625435  0.87386732  0.14174723  1
  V  V20  1  0.87074750  0.87855623  0.63749612  1
  V  V21  1  0.37441572  0.62888561  0.13668315  1
  V  V22  1  0.12627961  0.12305950  0.88819178  1
  V  V23  1  0.37298948  0.37519383  0.14253618  1
  V  V24  1  0.37586889  0.37519974  0.88903081  1
  V  V25  1  0.62262261  0.62659248  0.63845513  1
  V  V26  1  0.37508292  0.62453448  0.39026237  1
  V  V27  1  0.12686500  0.62674021  0.39540898  1
  V  V28  1  0.87879829  0.37225201  0.13689402  1
  V  V29  1  0.62724147  0.62461117  0.38806325  1
  V  V30  1  0.87678783  0.37884585  0.39159485  1
  V  V31  1  0.12466362  0.12610987  0.14544382  1
  Fe  Fe32  1  0.62405523  0.62606261  0.13460879  1
  Fe  Fe33  1  0.62514692  0.87199939  0.39498739  1
  Fe  Fe34  1  0.62355167  0.12387098  0.88825176  1
  Fe  Fe35  1  0.12650633  0.62365623  0.13141180  1
  Fe  Fe36  1  0.87083950  0.62589836  0.64579974  1
  Fe  Fe37  1  0.87801610  0.86931539  0.38295564  1
  Fe  Fe38  1  0.12582152  0.36881580  0.87995609  1
  Fe  Fe39  1  0.12520628  0.37332225  0.64143947  1
  Fe  Fe40  1  0.37481048  0.87913375  0.63876173  1
  Fe  Fe41  1  0.37571742  0.12748815  0.62900677  1
  Fe  Fe42  1  0.87805200  0.12245398  0.13707724  1
  Fe  Fe43  1  0.37515622  0.87496033  0.13497185  1
  Fe  Fe44  1  0.37334146  0.38171009  0.38385425  1
  Fe  Fe45  1  0.87118493  0.62601792  0.87565751  1
  Fe  Fe46  1  0.62736993  0.87877675  0.88573307  1
  Fe  Fe47  1  0.37701072  0.87861231  0.88087961  1
  Fe  Fe48  1  0.87312714  0.37285760  0.87833927  1
  Fe  Fe49  1  0.12243977  0.12652399  0.38429512  1
  Fe  Fe50  1  0.37249786  0.12856036  0.38408807  1
  Fe  Fe51  1  0.62489710  0.87670703  0.62678712  1
  Fe  Fe52  1  0.12449023  0.62413798  0.64816340  1
  Fe  Fe53  1  0.12550686  0.62613871  0.87479797  1
  Fe  Fe54  1  0.62617556  0.37946290  0.38071308  1
  Fe  Fe55  1  0.37858936  0.62385118  0.87254763  1
  Fe  Fe56  1  0.62617691  0.12759297  0.37839387  1
  Fe  Fe57  1  0.87813612  0.62216828  0.38734913  1
  Fe  Fe58  1  0.62708463  0.12455590  0.14657044  1
  Fe  Fe59  1  0.12421229  0.87267972  0.38628572  1
  Fe  Fe60  1  0.87157766  0.37100493  0.64405614  1
  Fe  Fe61  1  0.62422535  0.37083898  0.88896781  1
  Fe  Fe62  1  0.12245812  0.88008614  0.88250749  1
  Fe  Fe63  1  0.62529481  0.37795108  0.14012647  1
  Pb  Pb64  1  -0.00644884  0.00363330  0.00291878  1
  Pb  Pb65  1  0.00724094  -0.00838265  0.25285757  1
  Pb  Pb66  1  0.00389807  -0.00389466  0.49308936  1
  Pb  Pb67  1  0.00309277  -0.00324751  0.75018258  1
  Pb  Pb68  1  -0.00499261  0.24859486  -0.00362631  1
  Pb  Pb69  1  0.00589504  0.24683157  0.25147788  1
  Pb  Pb70  1  -0.00112543  0.26415828  0.50668630  1
  Pb  Pb71  1  -0.00238216  0.25618420  0.75047366  1
  Pb  Pb72  1  0.00091281  0.50112850  -0.01945432  1
  Pb  Pb73  1  -0.00418115  0.50804767  0.24992743  1
  Pb  Pb74  1  0.00920463  0.50279322  0.51577610  1
  Pb  Pb75  1  -0.00499275  0.49641763  0.74599596  1
  Pb  Pb76  1  0.00933080  0.74091172  -0.00862300  1
  Pb  Pb77  1  -0.00263080  0.75064559  0.25334190  1
  Pb  Pb78  1  -0.00314473  0.74084386  0.50387370  1
  Pb  Pb79  1  -0.00247138  0.74258908  0.75119755  1
  Pb  Pb80  1  0.25494947  -0.00893430  -0.00131991  1
  Pb  Pb81  1  0.24961364  0.00870552  0.25673751  1
  Pb  Pb82  1  0.25477230  0.00502423  0.49766193  1
  Pb  Pb83  1  0.25438602  -0.00366460  0.74783887  1
  Pb  Pb84  1  0.25071901  0.24824380  0.00015719  1
  Pb  Pb85  1  0.25521821  0.24877150  0.25619490  1
  Pb  Pb86  1  0.25561596  0.24676690  0.49704284  1
  Pb  Pb87  1  0.24828575  0.25133280  0.74791338  1
  Pb  Pb88  1  0.24268307  0.50967448  -0.01118283  1
  Pb  Pb89  1  0.25373298  0.49696803  0.24917769  1
  Pb  Pb90  1  0.24042435  0.50430130  0.51185603  1
  Pb  Pb91  1  0.24369051  0.49833637  0.75339874  1
  Pb  Pb92  1  0.25235555  0.74988645  -0.01533036  1
  Pb  Pb93  1  0.24514942  0.75472071  0.24884372  1
  Pb  Pb94  1  0.25452659  0.75338376  0.50825006  1
  Pb  Pb95  1  0.23927274  0.75777495  0.75714490  1
  Pb  Pb96  1  0.50148231  -0.00192478  -0.00059860  1
  Pb  Pb97  1  0.51219505  -0.00475931  0.25975796  1
  Pb  Pb98  1  0.49914996  0.00267410  0.49399301  1
  Pb  Pb99  1  0.49775257  -0.00379144  0.74564442  1
  Pb  Pb100  1  0.51197811  0.24769591  0.00896290  1
  Pb  Pb101  1  0.50115772  0.24961085  0.25293657  1
  Pb  Pb102  1  0.49960061  0.24990384  0.48546366  1
  Pb  Pb103  1  0.51126422  0.24735086  0.75046889  1
  Pb  Pb104  1  0.51217577  0.49999699  0.00309408  1
  Pb  Pb105  1  0.50018700  0.49482106  0.24986567  1
  Pb  Pb106  1  0.50005198  0.50023205  0.49637591  1
  Pb  Pb107  1  0.50036659  0.49893126  0.75173391  1
  Pb  Pb108  1  0.49199525  0.75487251  -0.00782789  1
  Pb  Pb109  1  0.50851199  0.75412164  0.25456094  1
  Pb  Pb110  1  0.49647013  0.75740296  0.50605307  1
  Pb  Pb111  1  0.50262459  0.76719123  0.75261133  1
  Pb  Pb112  1  0.74570777  0.00991347  0.00600767  1
  Pb  Pb113  1  0.74851672  -0.00164957  0.25100199  1
  Pb  Pb114  1  0.74471967  -0.00412773  0.49056479  1
  Pb  Pb115  1  0.73591634  0.00304155  0.75034281  1
  Pb  Pb116  1  0.74267713  0.24961603  0.00334113  1
  Pb  Pb117  1  0.74250753  0.24932020  0.24760196  1
  Pb  Pb118  1  0.75383667  0.25705163  0.49499157  1
  Pb  Pb119  1  0.74196191  0.24950173  0.75497272  1
  Pb  Pb120  1  0.74852460  0.49547350  -0.00653002  1
  Pb  Pb121  1  0.74534589  0.49947981  0.24869145  1
  Pb  Pb122  1  0.76827495  0.49986291  0.51027406  1
  Pb  Pb123  1  0.75390918  0.49388788  0.75156113  1
  Pb  Pb124  1  0.74458690  0.74348266  -0.00086558  1
  Pb  Pb125  1  0.76013308  0.75187549  0.25414006  1
  Pb  Pb126  1  0.75691201  0.74439975  0.49847725  1
  Pb  Pb127  1  0.74638233  0.75145436  0.74847752  1
  O  O128  1  0.12534275  -0.00365669  0.16620075  1
  O  O129  1  0.12305730  0.00012790  0.41276954  1
  O  O130  1  0.12208501  0.00161522  0.66429337  1
  O  O131  1  0.12297050  0.00525815  0.91780663  1
  O  O132  1  0.12432653  0.25424711  0.16675833  1
  O  O133  1  0.12114901  0.25955967  0.41425458  1
  O  O134  1  0.12161509  0.23997891  0.66062738  1
  O  O135  1  0.12642016  0.24266034  0.91754407  1
  O  O136  1  0.12495601  0.49732184  0.16333714  1
  O  O137  1  0.12429902  0.50143571  0.42280044  1
  O  O138  1  0.12797957  0.49718744  0.66956548  1
  O  O139  1  0.12770593  0.49703078  0.90090091  1
  O  O140  1  0.12728281  0.75328183  0.16076344  1
  O  O141  1  0.12700287  0.74256720  0.41818958  1
  O  O142  1  0.12520507  0.75950954  0.66190923  1
  O  O143  1  0.12473772  0.75352365  0.90738872  1
  O  O144  1  0.37208728  0.00367178  0.16568749  1
  O  O145  1  0.37122104  -0.00827598  0.40655035  1
  O  O146  1  0.37459643  0.00605792  0.66204588  1
  O  O147  1  0.37444222  0.00973741  0.91320143  1
  O  O148  1  0.37098473  0.25369918  0.16614176  1
  O  O149  1  0.37072550  0.25627494  0.41039323  1
  O  O150  1  0.37808743  0.25313869  0.66194349  1
  O  O151  1  0.37302788  0.24537039  0.91908792  1
  O  O152  1  0.37150127  0.49913116  0.16277166  1
  O  O153  1  0.37213924  0.50659599  0.41919432  1
  O  O154  1  0.37929468  0.48618900  0.66877209  1
  O  O155  1  0.37538370  0.49190658  0.90445907  1
  O  O156  1  0.37298230  0.74512058  0.15944310  1
  O  O157  1  0.37104625  0.74709008  0.42090530  1
  O  O158  1  0.37828066  0.74785294  0.66606301  1
  O  O159  1  0.37817167  0.74913419  0.90095625  1
  O  O160  1  0.62486520  -0.00970524  0.16669999  1
  O  O161  1  0.62537907  0.00297920  0.41133196  1
  O  O162  1  0.62729815  0.00698285  0.65551367  1
  O  O163  1  0.62741436  0.00168806  0.91969601  1
  O  O164  1  0.62496296  0.25320684  0.16637076  1
  O  O165  1  0.62914451  0.25293957  0.40573421  1
  O  O166  1  0.62686530  0.24532775  0.66149180  1
  O  O167  1  0.62381311  0.24628818  0.92224644  1
  O  O168  1  0.62586835  0.50378758  0.16658698  1
  O  O169  1  0.62266887  0.50864516  0.41288714  1
  O  O170  1  0.62381115  0.49749917  0.66294616  1
  O  O171  1  0.62337953  0.50331611  0.91068672  1
  O  O172  1  0.62428503  0.75257867  0.16679120  1
  O  O173  1  0.62122744  0.74008575  0.41666436  1
  O  O174  1  0.62200289  0.74551440  0.65608569  1
  O  O175  1  0.62580074  0.74653632  0.91189408  1
  O  O176  1  0.87785067  -0.00698864  0.16549520  1
  O  O177  1  0.87996453  0.00712488  0.40215330  1
  O  O178  1  0.87441557  -0.00198673  0.66647927  1
  O  O179  1  0.87542294  0.00067820  0.91784256  1
  O  O180  1  0.87981826  0.25754532  0.16095951  1
  O  O181  1  0.87865131  0.25745275  0.41336536  1
  O  O182  1  0.87470204  0.23834030  0.66311063  1
  O  O183  1  0.87650069  0.24119698  0.91173314  1
  O  O184  1  0.87865267  0.50203906  0.16160228  1
  O  O185  1  0.87722662  0.49647110  0.41814502  1
  O  O186  1  0.86812708  0.49853343  0.66577074  1
  O  O187  1  0.87258404  0.50083582  0.90299157  1
  O  O188  1  0.87713904  0.74698591  0.16489639  1
  O  O189  1  0.87675849  0.74476894  0.41850099  1
  O  O190  1  0.87252567  0.76320592  0.66280004  1
  O  O191  1  0.87186677  0.75570860  0.90986143  1
  O  O192  1  0.00341606  0.12490825  0.16910531  1
  O  O193  1  -0.00625585  0.13250004  0.41567176  1
  O  O194  1  0.00063440  0.11964192  0.66314745  1
  O  O195  1  -0.00149745  0.12256755  0.91487407  1
  O  O196  1  -0.00207247  0.37846171  0.16498072  1
  O  O197  1  -0.00011444  0.37992308  0.42035278  1
  O  O198  1  -0.00137114  0.37068277  0.66535878  1
  O  O199  1  -0.00029652  0.36922446  0.90681510  1
  O  O200  1  -0.00311174  0.62595542  0.16213715  1
  O  O201  1  0.00834347  0.62192067  0.41797628  1
  O  O202  1  -0.00325557  0.62847864  0.66548938  1
  O  O203  1  -0.00166897  0.62787846  0.90168429  1
  O  O204  1  0.00536827  0.87267867  0.16322949  1
  O  O205  1  0.00026300  0.87106350  0.41859017  1
  O  O206  1  -0.00114990  0.87973565  0.66288809  1
  O  O207  1  -0.00894963  0.87812759  0.91376639  1
  O  O208  1  0.25061607  0.12651909  0.16942270  1
  O  O209  1  0.24636773  0.12704372  0.41411371  1
  O  O210  1  0.24109281  0.12366599  0.65764007  1
  O  O211  1  0.25251589  0.12520745  0.91574194  1
  O  O212  1  0.24938275  0.37610785  0.16501156  1
  O  O213  1  0.24216795  0.38097938  0.41537293  1
  O  O214  1  0.25785453  0.36926377  0.66097786  1
  O  O215  1  0.25730373  0.36853826  0.91506862  1
  O  O216  1  0.25576939  0.62331278  0.16300184  1
  O  O217  1  0.24727237  0.62321883  0.42043056  1
  O  O218  1  0.25841638  0.62337982  0.66708344  1
  O  O219  1  0.25369989  0.62391215  0.90159495  1
  O  O220  1  0.24622514  0.87546588  0.16459822  1
  O  O221  1  0.25335993  0.86925018  0.41671860  1
  O  O222  1  0.24251900  0.87913174  0.66239860  1
  O  O223  1  0.25052811  0.88025000  0.90912264  1
  O  O224  1  0.49239876  0.12768033  0.16669135  1
  O  O225  1  0.49927682  0.12584398  0.40537381  1
  O  O226  1  0.50770844  0.12710384  0.65351880  1
  O  O227  1  0.49239731  0.12675078  0.91347952  1
  O  O228  1  0.49133676  0.37668517  0.16311489  1
  O  O229  1  0.50041619  0.38040423  0.41029379  1
  O  O230  1  0.50232020  0.36962870  0.66366476  1
  O  O231  1  0.49118543  0.36968278  0.91703763  1
  O  O232  1  0.49075771  0.62241544  0.16256290  1
  O  O233  1  0.49814735  0.62528683  0.41488821  1
  O  O234  1  0.50708381  0.62021481  0.66894067  1
  O  O235  1  0.50439955  0.62318918  0.90919745  1
  O  O236  1  0.50377367  0.87290633  0.16528238  1
  O  O237  1  0.48901890  0.87001292  0.41504123  1
  O  O238  1  0.50340452  0.87758504  0.66158150  1
  O  O239  1  0.50152189  0.87870146  0.91426375  1
  O  O240  1  0.75528219  0.12291031  0.16866636  1
  O  O241  1  0.76225555  0.13015155  0.40810511  1
  O  O242  1  0.74904598  0.12302574  0.66112309  1
  O  O243  1  0.75664322  0.12340926  0.91507853  1
  O  O244  1  0.76205527  0.37910466  0.16119174  1
  O  O245  1  0.75776627  0.37848804  0.41105474  1
  O  O246  1  0.74083898  0.36984775  0.66485902  1
  O  O247  1  0.75036159  0.37111786  0.91444064  1
  O  O248  1  0.75821791  0.62685087  0.16202703  1
  O  O249  1  0.74403882  0.62455844  0.40864310  1
  O  O250  1  0.73738971  0.62547788  0.66629167  1
  O  O251  1  0.74406325  0.62588139  0.91223396  1
  O  O252  1  0.74716235  0.87088597  0.16464672  1
  O  O253  1  0.75393286  0.87385076  0.41180541  1
  O  O254  1  0.75277103  0.87915872  0.65718153  1
  O  O255  1  0.75634460  0.87759480  0.91846849  1
  O  O256  1  0.12590344  0.12508822  0.05464667  1
  O  O257  1  0.12436343  0.12711688  0.28405553  1
  O  O258  1  0.12043308  0.12281109  0.54533714  1
  O  O259  1  0.12565643  0.12355149  0.79710495  1
  O  O260  1  0.12464117  0.37576733  0.04570097  1
  O  O261  1  0.12182244  0.38209355  0.30494982  1
  O  O262  1  0.11991447  0.38085178  0.54022584  1
  O  O263  1  0.13344556  0.35934473  0.77992445  1
  O  O264  1  0.12646323  0.62401915  0.03222508  1
  O  O265  1  0.12795017  0.62382048  0.30435485  1
  O  O266  1  0.12662379  0.61685432  0.54631890  1
  O  O267  1  0.12959180  0.63560460  0.77348766  1
  O  O268  1  0.12710277  0.87654157  0.04998813  1
  O  O269  1  0.12375968  0.86801840  0.28652482  1
  O  O270  1  0.12185227  0.87892711  0.54983055  1
  O  O271  1  0.12464490  0.88152076  0.78261002  1
  O  O272  1  0.37296088  0.12506141  0.05675895  1
  O  O273  1  0.36530605  0.12872325  0.28280178  1
  O  O274  1  0.37013507  0.12579013  0.52901194  1
  O  O275  1  0.37461627  0.12969642  0.79817249  1
  O  O276  1  0.37167309  0.37422942  0.05212581  1
  O  O277  1  0.36873481  0.38393933  0.28388010  1
  O  O278  1  0.37800794  0.37604388  0.54732065  1
  O  O279  1  0.37545601  0.36534000  0.79830267  1
  O  O280  1  0.37442202  0.62429869  0.04572303  1
  O  O281  1  0.37322933  0.62671654  0.29938035  1
  O  O282  1  0.38199520  0.61956113  0.56551049  1
  O  O283  1  0.38459082  0.61492433  0.77102406  1
  O  O284  1  0.37564163  0.87851196  0.03595596  1
  O  O285  1  0.37049833  0.86557593  0.29964444  1
  O  O286  1  0.37144842  0.86866751  0.53877455  1
  O  O287  1  0.38107778  0.88509015  0.77928760  1
  O  O288  1  0.62733475  0.12557625  0.04522226  1
  O  O289  1  0.62552962  0.12027766  0.27670417  1
  O  O290  1  0.62876834  0.12759183  0.54261019  1
  O  O291  1  0.62898237  0.12685976  0.78780022  1
  O  O292  1  0.62055471  0.37887627  0.03846837  1
  O  O293  1  0.62796900  0.38416973  0.28013439  1
  O  O294  1  0.62585003  0.37612112  0.54705287  1
  O  O295  1  0.62295114  0.35934502  0.78889601  1
  O  O296  1  0.62470593  0.62384279  0.03528635  1
  O  O297  1  0.62287445  0.62716282  0.29633967  1
  O  O298  1  0.62266721  0.62062909  0.54780998  1
  O  O299  1  0.62561085  0.62758271  0.79734133  1
  O  O300  1  0.62432211  0.87103088  0.05047340  1
  O  O301  1  0.61402460  0.87142155  0.29370122  1
  O  O302  1  0.62041524  0.87750297  0.52608289  1
  O  O303  1  0.62655028  0.87989621  0.78538727  1
  O  O304  1  0.88110593  0.12167736  0.03735935  1
  O  O305  1  0.88347236  0.13169902  0.29432496  1
  O  O306  1  0.87412602  0.12211604  0.54644829  1
  O  O307  1  0.87422836  0.12000567  0.80117010  1
  O  O308  1  0.88114698  0.37355519  0.04609073  1
  O  O309  1  0.88234002  0.38064847  0.30099247  1
  O  O310  1  0.86816693  0.37293930  0.54229805  1
  O  O311  1  0.86953879  0.36766452  0.77723245  1
  O  O312  1  0.87603737  0.62429046  0.04830782  1
  O  O313  1  0.88333430  0.62495050  0.28750240  1
  O  O314  1  0.86520037  0.62624288  0.54359621  1
  O  O315  1  0.86366317  0.63615280  0.77531067  1
  O  O316  1  0.87511528  0.87116712  0.05109953  1
  O  O317  1  0.88022193  0.86192162  0.28206092  1
  O  O318  1  0.87547213  0.87969919  0.54681464  1
  O  O319  1  0.86994933  0.87798171  0.79887512  1
