# generated using pymatgen
data_VFe(PbO3)2
_symmetry_space_group_name_H-M   'P 1'
_cell_length_a   15.38935870
_cell_length_b   15.37794483
_cell_length_c   18.54456402
_cell_angle_alpha   90.05339963
_cell_angle_beta   89.96909211
_cell_angle_gamma   89.99780117
_symmetry_Int_Tables_number   1
_chemical_formula_structural   VFe(PbO3)2
_chemical_formula_sum   'V32 Fe32 Pb64 O192'
_cell_volume   4388.69294315
_cell_formula_units_Z   32
loop_
 _symmetry_equiv_pos_site_id
 _symmetry_equiv_pos_as_xyz
  1  'x, y, z'
loop_
 _atom_site_type_symbol
 _atom_site_label
 _atom_site_symmetry_multiplicity
 _atom_site_fract_x
 _atom_site_fract_y
 _atom_site_fract_z
 _atom_site_occupancy
  V  V0  1  0.12382144  0.62665700  0.39102470  1
  V  V1  1  0.87264454  0.12377522  0.39133689  1
  V  V2  1  0.37280956  0.61960870  0.63870091  1
  V  V3  1  0.12736618  0.87982193  0.88855902  1
  V  V4  1  0.87413184  0.87582117  0.88738635  1
  V  V5  1  0.62537226  0.37556586  0.64241076  1
  V  V6  1  0.87268863  0.37590595  0.64428338  1
  V  V7  1  0.62697248  0.12660906  0.64329507  1
  V  V8  1  0.12430259  0.12551705  0.39259825  1
  V  V9  1  0.62542941  0.61994611  0.64789751  1
  V  V10  1  0.87259586  0.88369700  0.63950337  1
  V  V11  1  0.37142189  0.62857458  0.88682459  1
  V  V12  1  0.62801962  0.87371618  0.39189924  1
  V  V13  1  0.12498096  0.62440068  0.88915331  1
  V  V14  1  0.12699563  0.12113252  0.13644168  1
  V  V15  1  0.62683602  0.37150851  0.89950688  1
  V  V16  1  0.62697644  0.62588337  0.38565510  1
  V  V17  1  0.62315940  0.12546472  0.13886997  1
  V  V18  1  0.12051671  0.87704955  0.39532504  1
  V  V19  1  0.62869819  0.37465965  0.38256028  1
  V  V20  1  0.87452944  0.62598555  0.38750616  1
  V  V21  1  0.37523593  0.87644313  0.14179967  1
  V  V22  1  0.12449864  0.62871957  0.13579215  1
  V  V23  1  0.62284743  0.87502890  0.13583562  1
  V  V24  1  0.37968711  0.37577548  0.63943927  1
  V  V25  1  0.37530919  0.37605762  0.89127241  1
  V  V26  1  0.37431529  0.13019109  0.63526513  1
  V  V27  1  0.87260596  0.62347459  0.64661827  1
  V  V28  1  0.37493929  0.62727162  0.14024444  1
  V  V29  1  0.12082143  0.37557203  0.38857658  1
  V  V30  1  0.37394620  0.12526973  0.88623958  1
  V  V31  1  0.87775924  0.12596602  0.89019419  1
  Fe  Fe32  1  0.12218038  0.12829760  0.63250030  1
  Fe  Fe33  1  0.62607985  0.12359652  0.38178753  1
  Fe  Fe34  1  0.63037538  0.87139450  0.64884940  1
  Fe  Fe35  1  0.87686647  0.87675844  0.13212957  1
  Fe  Fe36  1  0.37171551  0.87663335  0.87357839  1
  Fe  Fe37  1  0.37434897  0.12404443  0.38512155  1
  Fe  Fe38  1  0.37326097  0.37733985  0.38010441  1
  Fe  Fe39  1  0.37746861  0.87257997  0.64160118  1
  Fe  Fe40  1  0.62488274  0.12582068  0.88650248  1
  Fe  Fe41  1  0.87627033  0.37695088  0.38176443  1
  Fe  Fe42  1  0.87513108  0.37345372  0.12611832  1
  Fe  Fe43  1  0.87480394  0.62930899  0.12179783  1
  Fe  Fe44  1  0.87651917  0.37454331  0.89533970  1
  Fe  Fe45  1  0.12814311  0.37425394  0.12990902  1
  Fe  Fe46  1  0.62163667  0.87897245  0.87716027  1
  Fe  Fe47  1  0.12560691  0.37889720  0.63556179  1
  Fe  Fe48  1  0.13001029  0.87418659  0.13443441  1
  Fe  Fe49  1  0.62111747  0.63078287  0.12579700  1
  Fe  Fe50  1  0.37485107  0.37392486  0.14111489  1
  Fe  Fe51  1  0.37409480  0.87208930  0.39334076  1
  Fe  Fe52  1  0.12076470  0.87139720  0.63309747  1
  Fe  Fe53  1  0.37377448  0.12119199  0.14026062  1
  Fe  Fe54  1  0.12560011  0.12562190  0.88398856  1
  Fe  Fe55  1  0.62199913  0.37711880  0.12788826  1
  Fe  Fe56  1  0.87626754  0.12124053  0.13101907  1
  Fe  Fe57  1  0.37600844  0.62584069  0.38723036  1
  Fe  Fe58  1  0.62027349  0.62436086  0.89508280  1
  Fe  Fe59  1  0.87226051  0.13076268  0.63457358  1
  Fe  Fe60  1  0.12901906  0.37274639  0.89459566  1
  Fe  Fe61  1  0.87606320  0.87196151  0.38720197  1
  Fe  Fe62  1  0.87669072  0.62617732  0.89620627  1
  Fe  Fe63  1  0.12212208  0.62147595  0.63614311  1
  Pb  Pb64  1  -0.00552447  -0.00212477  0.00329636  1
  Pb  Pb65  1  -0.00397014  -0.00605970  0.24588007  1
  Pb  Pb66  1  -0.00109797  0.00931347  0.50480801  1
  Pb  Pb67  1  0.00935359  0.01312142  0.74625683  1
  Pb  Pb68  1  0.00473917  0.25275431  -0.00171522  1
  Pb  Pb69  1  -0.00389254  0.25413128  0.24088347  1
  Pb  Pb70  1  -0.00115140  0.24553020  0.50411152  1
  Pb  Pb71  1  0.00761810  0.25235308  0.75177134  1
  Pb  Pb72  1  -0.00055061  0.49221156  -0.00060738  1
  Pb  Pb73  1  -0.00888621  0.49545853  0.23801650  1
  Pb  Pb74  1  0.00583870  0.50021534  0.50337440  1
  Pb  Pb75  1  -0.00839268  0.49385057  0.75941435  1
  Pb  Pb76  1  -0.00060404  0.76008728  0.00275066  1
  Pb  Pb77  1  -0.00567900  0.75602972  0.24505565  1
  Pb  Pb78  1  0.00509893  0.74692585  0.50405262  1
  Pb  Pb79  1  -0.00392065  0.74462658  0.75061118  1
  Pb  Pb80  1  0.25582540  0.00728653  0.00047937  1
  Pb  Pb81  1  0.25681683  0.00061453  0.25537665  1
  Pb  Pb82  1  0.25041011  -0.00643624  0.50313141  1
  Pb  Pb83  1  0.25071867  -0.00176868  0.73986376  1
  Pb  Pb84  1  0.25505982  0.24872101  0.00366508  1
  Pb  Pb85  1  0.25425007  0.25110222  0.24709401  1
  Pb  Pb86  1  0.24439064  0.25283775  0.49603647  1
  Pb  Pb87  1  0.23698395  0.25307689  0.75155118  1
  Pb  Pb88  1  0.25271980  0.49170636  0.00546666  1
  Pb  Pb89  1  0.25443281  0.49936618  0.24895742  1
  Pb  Pb90  1  0.24190053  0.49856656  0.50004666  1
  Pb  Pb91  1  0.23813967  0.49111192  0.75337950  1
  Pb  Pb92  1  0.24446464  0.75656401  -0.00111630  1
  Pb  Pb93  1  0.25811860  0.75006146  0.25718940  1
  Pb  Pb94  1  0.25002381  0.75558363  0.50688878  1
  Pb  Pb95  1  0.25021869  0.75532905  0.74386377  1
  Pb  Pb96  1  0.49827519  0.00037609  -0.00913703  1
  Pb  Pb97  1  0.49977338  0.00602358  0.25662719  1
  Pb  Pb98  1  0.49629232  -0.00243574  0.50001547  1
  Pb  Pb99  1  0.50018753  -0.00692752  0.74775509  1
  Pb  Pb100  1  0.49461167  0.25410459  0.00661735  1
  Pb  Pb101  1  0.49407177  0.25035286  0.24756285  1
  Pb  Pb102  1  0.49834484  0.24890660  0.48993881  1
  Pb  Pb103  1  0.50442446  0.24442155  0.75372428  1
  Pb  Pb104  1  0.49777162  0.49138507  0.00639287  1
  Pb  Pb105  1  0.50045054  0.49824066  0.24421751  1
  Pb  Pb106  1  0.49829895  0.50012838  0.49254241  1
  Pb  Pb107  1  0.50643545  0.50396274  0.75861449  1
  Pb  Pb108  1  0.50380663  0.75326553  -0.00838990  1
  Pb  Pb109  1  0.49068372  0.75222707  0.25505140  1
  Pb  Pb110  1  0.49528671  0.75724075  0.50598660  1
  Pb  Pb111  1  0.50687441  0.74866823  0.75314410  1
  Pb  Pb112  1  0.75552866  -0.00088763  -0.00206347  1
  Pb  Pb113  1  0.74795197  0.00144203  0.24740909  1
  Pb  Pb114  1  0.74465348  -0.00604084  0.50455710  1
  Pb  Pb115  1  0.74001445  0.00328659  0.75617541  1
  Pb  Pb116  1  0.75728526  0.24758375  0.00423138  1
  Pb  Pb117  1  0.75458400  0.25624635  0.24103678  1
  Pb  Pb118  1  0.75499075  0.24719010  0.49705273  1
  Pb  Pb119  1  0.75016955  0.25360854  0.75712749  1
  Pb  Pb120  1  0.75525615  0.50458213  -0.00021443  1
  Pb  Pb121  1  0.75026335  0.50295409  0.22999753  1
  Pb  Pb122  1  0.75206156  0.50141418  0.49595047  1
  Pb  Pb123  1  0.75896443  0.49785640  0.76815078  1
  Pb  Pb124  1  0.74547290  0.74419663  -0.00356751  1
  Pb  Pb125  1  0.75557898  0.75060272  0.23970203  1
  Pb  Pb126  1  0.74525673  0.75436471  0.50581465  1
  Pb  Pb127  1  0.74950073  0.73399983  0.76384895  1
  O  O128  1  0.12836751  0.00295611  0.16402683  1
  O  O129  1  0.12191615  -0.00332408  0.41558546  1
  O  O130  1  0.12097306  -0.00028190  0.65772433  1
  O  O131  1  0.12736524  -0.00441283  0.90740121  1
  O  O132  1  0.12722129  0.24254921  0.15762791  1
  O  O133  1  0.12279123  0.25481076  0.41170095  1
  O  O134  1  0.12475254  0.25448897  0.66400664  1
  O  O135  1  0.12857728  0.24628495  0.91775769  1
  O  O136  1  0.12948396  0.51171625  0.16026762  1
  O  O137  1  0.12132815  0.50044437  0.41257081  1
  O  O138  1  0.12451943  0.49991407  0.67132642  1
  O  O139  1  0.13179522  0.50866516  0.91435920  1
  O  O140  1  0.13102079  0.74373304  0.16590904  1
  O  O141  1  0.12004764  0.74695007  0.41363973  1
  O  O142  1  0.12057863  0.74556481  0.66618526  1
  O  O143  1  0.13142142  0.74734421  0.91247675  1
  O  O144  1  0.37438399  -0.00728964  0.16712316  1
  O  O145  1  0.37335090  -0.00182580  0.41988100  1
  O  O146  1  0.37861159  0.01209621  0.65837437  1
  O  O147  1  0.37155090  0.00580680  0.90582668  1
  O  O148  1  0.37493274  0.24623935  0.16456583  1
  O  O149  1  0.37425918  0.25315919  0.41207813  1
  O  O150  1  0.38187291  0.24778502  0.66370196  1
  O  O151  1  0.37368687  0.24971554  0.91313554  1
  O  O152  1  0.37510659  0.50928278  0.16071759  1
  O  O153  1  0.37619047  0.50006513  0.41492983  1
  O  O154  1  0.38304226  0.50271322  0.66686770  1
  O  O155  1  0.37476564  0.49576595  0.91262165  1
  O  O156  1  0.37487875  0.75298735  0.16632964  1
  O  O157  1  0.37528043  0.74735261  0.42365221  1
  O  O158  1  0.38075465  0.73638504  0.66286484  1
  O  O159  1  0.37070321  0.74569044  0.90184771  1
  O  O160  1  0.62127993  -0.00714494  0.16475613  1
  O  O161  1  0.62850198  -0.00704444  0.41577215  1
  O  O162  1  0.62969939  0.00859843  0.66284770  1
  O  O163  1  0.62420369  0.00120862  0.91351523  1
  O  O164  1  0.62252040  0.24164435  0.15627825  1
  O  O165  1  0.62846636  0.25666720  0.40620618  1
  O  O166  1  0.62582483  0.25137036  0.67014956  1
  O  O167  1  0.62150297  0.25131191  0.91994924  1
  O  O168  1  0.62111189  0.50483826  0.15330852  1
  O  O169  1  0.62836706  0.49810365  0.41020081  1
  O  O170  1  0.62473744  0.49937769  0.67339957  1
  O  O171  1  0.61799546  0.49101567  0.91592445  1
  O  O172  1  0.61931098  0.75946538  0.16129385  1
  O  O173  1  0.62903725  0.75205063  0.41637951  1
  O  O174  1  0.62943799  0.73871205  0.66906435  1
  O  O175  1  0.62098830  0.75622941  0.90911986  1
  O  O176  1  0.87493607  -0.00019216  0.16547848  1
  O  O177  1  0.87624304  0.00514661  0.41433400  1
  O  O178  1  0.87365484  -0.00156691  0.65327718  1
  O  O179  1  0.88104944  -0.00226998  0.91338404  1
  O  O180  1  0.87516772  0.24620503  0.15869960  1
  O  O181  1  0.87504270  0.24681503  0.41327427  1
  O  O182  1  0.86963028  0.25950235  0.66501954  1
  O  O183  1  0.87493626  0.24234444  0.91197423  1
  O  O184  1  0.87641551  0.50307456  0.14985860  1
  O  O185  1  0.87417067  0.50430164  0.41517886  1
  O  O186  1  0.86888625  0.49781356  0.67416752  1
  O  O187  1  0.87471034  0.50045234  0.91739359  1
  O  O188  1  0.87601755  0.75135202  0.15958372  1
  O  O189  1  0.87546454  0.74414794  0.41837169  1
  O  O190  1  0.87027394  0.73884492  0.66610571  1
  O  O191  1  0.88147738  0.76016856  0.90786348  1
  O  O192  1  0.00815314  0.12167162  0.15872788  1
  O  O193  1  -0.00289612  0.12635245  0.41736734  1
  O  O194  1  -0.00440455  0.13048276  0.66518516  1
  O  O195  1  -0.00382626  0.12217936  0.91256214  1
  O  O196  1  0.00320909  0.37585133  0.15725961  1
  O  O197  1  0.00363498  0.37667085  0.41316931  1
  O  O198  1  -0.00972666  0.37954269  0.66177892  1
  O  O199  1  0.00365999  0.37526735  0.91473637  1
  O  O200  1  0.00706290  0.62868258  0.15231399  1
  O  O201  1  0.00094317  0.62351263  0.41582663  1
  O  O202  1  -0.00984884  0.61781944  0.66619154  1
  O  O203  1  0.01133534  0.62744875  0.91106546  1
  O  O204  1  0.00491273  0.87408196  0.16310239  1
  O  O205  1  0.00308724  0.87339011  0.41793336  1
  O  O206  1  -0.01304574  0.86746529  0.66459846  1
  O  O207  1  0.00719917  0.87416161  0.91297295  1
  O  O208  1  0.24354312  0.12135947  0.16783529  1
  O  O209  1  0.24457958  0.12496002  0.41628936  1
  O  O210  1  0.25748271  0.12914636  0.65240686  1
  O  O211  1  0.25610087  0.12571720  0.91317367  1
  O  O212  1  0.24802684  0.37790855  0.16599304  1
  O  O213  1  0.24117099  0.37811712  0.41041801  1
  O  O214  1  0.25955533  0.37669603  0.66398176  1
  O  O215  1  0.25903088  0.37443892  0.91742314  1
  O  O216  1  0.25480367  0.62921197  0.16507590  1
  O  O217  1  0.24021277  0.62424882  0.41212528  1
  O  O218  1  0.25753352  0.62090491  0.65524360  1
  O  O219  1  0.25463365  0.62295201  0.91643753  1
  O  O220  1  0.25729346  0.87330493  0.16624011  1
  O  O221  1  0.24049369  0.87146478  0.41816947  1
  O  O222  1  0.24864917  0.87297171  0.66056481  1
  O  O223  1  0.24646425  0.87393169  0.90948511  1
  O  O224  1  0.50532356  0.11734424  0.16407811  1
  O  O225  1  0.50273078  0.12400714  0.41448145  1
  O  O226  1  0.50451649  0.12855422  0.66445838  1
  O  O227  1  0.49141187  0.12669252  0.91126248  1
  O  O228  1  0.50139651  0.37496879  0.16668527  1
  O  O229  1  0.51000689  0.37724780  0.40642520  1
  O  O230  1  0.50260876  0.37487048  0.67142063  1
  O  O231  1  0.49349687  0.37094422  0.91660522  1
  O  O232  1  0.49291299  0.63156580  0.16147447  1
  O  O233  1  0.50820829  0.62568918  0.41523275  1
  O  O234  1  0.50531231  0.62093039  0.66788102  1
  O  O235  1  0.48597529  0.62279406  0.91407400  1
  O  O236  1  0.49619843  0.87501768  0.16498275  1
  O  O237  1  0.50927108  0.87268638  0.41679049  1
  O  O238  1  0.50276581  0.87423642  0.66371406  1
  O  O239  1  0.49419449  0.87852445  0.90272358  1
  O  O240  1  0.74214949  0.11863729  0.16060114  1
  O  O241  1  0.75382956  0.12567309  0.41302975  1
  O  O242  1  0.74587336  0.13050987  0.66658357  1
  O  O243  1  0.75740500  0.12074941  0.91252692  1
  O  O244  1  0.74790154  0.37275328  0.15435473  1
  O  O245  1  0.74657924  0.37643258  0.41127506  1
  O  O246  1  0.74814367  0.37719230  0.67283635  1
  O  O247  1  0.74345144  0.37172534  0.91539986  1
  O  O248  1  0.74779289  0.63130646  0.15196640  1
  O  O249  1  0.74883530  0.62433453  0.41686839  1
  O  O250  1  0.74869747  0.61787578  0.67402734  1
  O  O251  1  0.74744908  0.62757853  0.91255593  1
  O  O252  1  0.74116977  0.87559190  0.15556193  1
  O  O253  1  0.74808456  0.87360990  0.41808763  1
  O  O254  1  0.76306452  0.87044457  0.67366885  1
  O  O255  1  0.75771884  0.87948432  0.90254829  1
  O  O256  1  0.13306632  0.11794082  0.04504629  1
  O  O257  1  0.12092528  0.12469087  0.30212753  1
  O  O258  1  0.11472974  0.13169631  0.53186806  1
  O  O259  1  0.12126867  0.12965691  0.78352527  1
  O  O260  1  0.13203124  0.37957633  0.02941413  1
  O  O261  1  0.12014718  0.37735506  0.29795578  1
  O  O262  1  0.12694050  0.38439338  0.53560768  1
  O  O263  1  0.13655125  0.37316101  0.79250093  1
  O  O264  1  0.13299663  0.63180175  0.04488228  1
  O  O265  1  0.12053550  0.62545899  0.30075432  1
  O  O266  1  0.11819410  0.61789901  0.53599131  1
  O  O267  1  0.12846004  0.62391547  0.79793842  1
  O  O268  1  0.12989676  0.86753635  0.03478949  1
  O  O269  1  0.12271863  0.87520006  0.30455208  1
  O  O270  1  0.12289812  0.86628818  0.53348535  1
  O  O271  1  0.12504525  0.87328454  0.79759428  1
  O  O272  1  0.36708680  0.11678856  0.04047195  1
  O  O273  1  0.37356466  0.11676801  0.28452856  1
  O  O274  1  0.38226827  0.13259792  0.54457693  1
  O  O275  1  0.37378825  0.12905232  0.79537565  1
  O  O276  1  0.37824079  0.37596565  0.03951385  1
  O  O277  1  0.37415231  0.37998147  0.28001565  1
  O  O278  1  0.38124174  0.37729549  0.54867549  1
  O  O279  1  0.37544779  0.37383317  0.80057313  1
  O  O280  1  0.37331897  0.63076983  0.04963762  1
  O  O281  1  0.37447662  0.63485716  0.28742788  1
  O  O282  1  0.38205851  0.61769306  0.54784942  1
  O  O283  1  0.37131203  0.62025531  0.79609553  1
  O  O284  1  0.37529005  0.87594484  0.05087051  1
  O  O285  1  0.37388517  0.86599033  0.29298208  1
  O  O286  1  0.37467815  0.86961299  0.53939414  1
  O  O287  1  0.36768600  0.87969166  0.77293054  1
  O  O288  1  0.62221998  0.11906460  0.04787357  1
  O  O289  1  0.62540202  0.11565300  0.28316032  1
  O  O290  1  0.62687249  0.13086747  0.55240227  1
  O  O291  1  0.62801361  0.12886336  0.78677953  1
  O  O292  1  0.61050139  0.37170846  0.02803627  1
  O  O293  1  0.63085888  0.37716641  0.29188555  1
  O  O294  1  0.62604619  0.37526411  0.55183751  1
  O  O295  1  0.62188635  0.36894026  0.80766597  1
  O  O296  1  0.61848852  0.63860939  0.02485463  1
  O  O297  1  0.62788954  0.62814879  0.29520235  1
  O  O298  1  0.62869794  0.61700286  0.55746332  1
  O  O299  1  0.61659899  0.62383273  0.79334417  1
  O  O300  1  0.61710350  0.87656485  0.04495563  1
  O  O301  1  0.62841577  0.87285287  0.30139083  1
  O  O302  1  0.64168094  0.87256127  0.54828255  1
  O  O303  1  0.62739336  0.88262861  0.77499036  1
  O  O304  1  0.87290101  0.11652649  0.03147121  1
  O  O305  1  0.87505037  0.12472407  0.30047161  1
  O  O306  1  0.87473751  0.13378828  0.53501640  1
  O  O307  1  0.87699665  0.12405242  0.79880836  1
  O  O308  1  0.87465302  0.36807681  0.02485622  1
  O  O309  1  0.87871951  0.37517341  0.28273671  1
  O  O310  1  0.86662464  0.38084938  0.55348254  1
  O  O311  1  0.87154970  0.37965372  0.79355114  1
  O  O312  1  0.87390586  0.63491506  0.02108960  1
  O  O313  1  0.87312216  0.62685204  0.29653811  1
  O  O314  1  0.86752667  0.61806196  0.55598853  1
  O  O315  1  0.87422894  0.62213778  0.79324083  1
  O  O316  1  0.88269679  0.88033805  0.03146046  1
  O  O317  1  0.87822947  0.86889825  0.28820347  1
  O  O318  1  0.86783658  0.87137269  0.54817714  1
  O  O319  1  0.88313996  0.88084951  0.79725736  1
