# generated using pymatgen
data_VFe(PbO3)2
_symmetry_space_group_name_H-M   'P 1'
_cell_length_a   15.38444965
_cell_length_b   15.37560246
_cell_length_c   18.50077787
_cell_angle_alpha   90.03323589
_cell_angle_beta   89.95689706
_cell_angle_gamma   89.99690147
_symmetry_Int_Tables_number   1
_chemical_formula_structural   VFe(PbO3)2
_chemical_formula_sum   'V32 Fe32 Pb64 O192'
_cell_volume   4376.26788493
_cell_formula_units_Z   32
loop_
 _symmetry_equiv_pos_site_id
 _symmetry_equiv_pos_as_xyz
  1  'x, y, z'
loop_
 _atom_site_type_symbol
 _atom_site_label
 _atom_site_symmetry_multiplicity
 _atom_site_fract_x
 _atom_site_fract_y
 _atom_site_fract_z
 _atom_site_occupancy
  V  V0  1  0.62534256  0.37846686  0.89257625  1
  V  V1  1  0.37607199  0.62706976  0.88995168  1
  V  V2  1  0.87398137  0.37602745  0.64502259  1
  V  V3  1  0.62307291  0.62508427  0.64032698  1
  V  V4  1  0.37688160  0.12498454  0.64374890  1
  V  V5  1  0.12695256  0.87640295  0.14268095  1
  V  V6  1  0.87597180  0.87518321  0.88949052  1
  V  V7  1  0.87051821  0.37585995  0.13588604  1
  V  V8  1  0.37427956  0.87348691  0.13743523  1
  V  V9  1  0.12559398  0.87311993  0.89139290  1
  V  V10  1  0.87480718  0.12294993  0.89011422  1
  V  V11  1  0.61286733  0.37481219  0.13165356  1
  V  V12  1  0.87559757  0.87325154  0.14162791  1
  V  V13  1  0.37614619  0.37651286  0.64652953  1
  V  V14  1  0.12552891  0.12929876  0.64283092  1
  V  V15  1  0.37565001  0.87571781  0.38311403  1
  V  V16  1  0.12076084  0.37504858  0.13787771  1
  V  V17  1  0.62363324  0.37380754  0.64081367  1
  V  V18  1  0.12373711  0.62778347  0.88632734  1
  V  V19  1  0.62365072  0.37419317  0.38897873  1
  V  V20  1  0.62387690  0.12734961  0.64039496  1
  V  V21  1  0.37562716  0.62484721  0.63824910  1
  V  V22  1  0.12321776  0.62617236  0.14374063  1
  V  V23  1  0.36449150  0.37627143  0.13389398  1
  V  V24  1  0.12806801  0.87666440  0.63652036  1
  V  V25  1  0.87236606  0.37473394  0.38918217  1
  V  V26  1  0.87397242  0.62464209  0.38928290  1
  V  V27  1  0.62547935  0.12554265  0.89213541  1
  V  V28  1  0.87443806  0.12574591  0.38868553  1
  V  V29  1  0.37325403  0.37468860  0.38602879  1
  V  V30  1  0.87366668  0.62644253  0.89002222  1
  V  V31  1  0.12621138  0.62502997  0.63885409  1
  Fe  Fe32  1  0.62759261  0.62255065  0.13714286  1
  Fe  Fe33  1  0.37473882  0.87368955  0.88617056  1
  Fe  Fe34  1  0.62287653  0.87712021  0.63364492  1
  Fe  Fe35  1  0.12633286  0.62396218  0.38624012  1
  Fe  Fe36  1  0.37466971  0.12398210  0.88672925  1
  Fe  Fe37  1  0.12696692  0.37638220  0.64483682  1
  Fe  Fe38  1  0.87910074  0.62311509  0.13605277  1
  Fe  Fe39  1  0.62565018  0.62374785  0.38231322  1
  Fe  Fe40  1  0.87298867  0.37432557  0.88584839  1
  Fe  Fe41  1  0.62515909  0.62463500  0.88893637  1
  Fe  Fe42  1  0.87402672  0.62491431  0.63420626  1
  Fe  Fe43  1  0.37656866  0.62352767  0.37933040  1
  Fe  Fe44  1  0.62451428  0.12695663  0.38296454  1
  Fe  Fe45  1  0.62609562  0.87590491  0.37870969  1
  Fe  Fe46  1  0.87379501  0.12545255  0.63547949  1
  Fe  Fe47  1  0.87353798  0.87571781  0.63137210  1
  Fe  Fe48  1  0.37615991  0.87539922  0.63747673  1
  Fe  Fe49  1  0.37595041  0.12682359  0.38312849  1
  Fe  Fe50  1  0.12714980  0.12614435  0.38597253  1
  Fe  Fe51  1  0.87891896  0.12480239  0.13496645  1
  Fe  Fe52  1  0.87602528  0.87568357  0.38397035  1
  Fe  Fe53  1  0.12186715  0.37509732  0.38705991  1
  Fe  Fe54  1  0.12404881  0.87511321  0.38401188  1
  Fe  Fe55  1  0.12322695  0.12514181  0.13416723  1
  Fe  Fe56  1  0.37235873  0.62392519  0.14609906  1
  Fe  Fe57  1  0.62718609  0.87507719  0.89175706  1
  Fe  Fe58  1  0.37308214  0.12483645  0.13500372  1
  Fe  Fe59  1  0.37561466  0.37648307  0.88519170  1
  Fe  Fe60  1  0.12260943  0.12237728  0.88314361  1
  Fe  Fe61  1  0.62502061  0.87432833  0.13563154  1
  Fe  Fe62  1  0.62727840  0.12618225  0.13558216  1
  Fe  Fe63  1  0.12177677  0.37680561  0.87946373  1
  Pb  Pb64  1  0.00045671  0.00757792  0.00462807  1
  Pb  Pb65  1  0.00053544  -0.00599318  0.25303169  1
  Pb  Pb66  1  -0.00368406  -0.00260513  0.49664650  1
  Pb  Pb67  1  0.00440824  0.00365106  0.74726352  1
  Pb  Pb68  1  0.00335848  0.24505356  -0.00496739  1
  Pb  Pb69  1  0.00761182  0.24558113  0.24955221  1
  Pb  Pb70  1  0.00120340  0.25027448  0.50240528  1
  Pb  Pb71  1  0.00119844  0.25717424  0.75563679  1
  Pb  Pb72  1  -0.00446927  0.49982043  -0.00345753  1
  Pb  Pb73  1  0.00919377  0.49751569  0.25498219  1
  Pb  Pb74  1  0.00230862  0.49827269  0.50275285  1
  Pb  Pb75  1  -0.00125409  0.49323371  0.75370289  1
  Pb  Pb76  1  -0.00763492  0.74650493  0.00322017  1
  Pb  Pb77  1  -0.00059488  0.75771394  0.25737544  1
  Pb  Pb78  1  -0.00584461  0.75260019  0.49695950  1
  Pb  Pb79  1  -0.00457069  0.75073429  0.74335134  1
  Pb  Pb80  1  0.25459045  0.01362771  -0.00009996  1
  Pb  Pb81  1  0.24798388  0.00942946  0.25050652  1
  Pb  Pb82  1  0.25404856  0.00039477  0.49395662  1
  Pb  Pb83  1  0.25232028  0.00944984  0.75527566  1
  Pb  Pb84  1  0.24589033  0.24773557  -0.01074567  1
  Pb  Pb85  1  0.24754352  0.24065937  0.25103819  1
  Pb  Pb86  1  0.24298530  0.25324056  0.49996055  1
  Pb  Pb87  1  0.25733128  0.24900937  0.75936295  1
  Pb  Pb88  1  0.25099484  0.50046285  -0.00360537  1
  Pb  Pb89  1  0.24208007  0.50054457  0.25560177  1
  Pb  Pb90  1  0.24247957  0.49681870  0.49973895  1
  Pb  Pb91  1  0.25159148  0.49364560  0.75381291  1
  Pb  Pb92  1  0.25605708  0.74405885  0.00376858  1
  Pb  Pb93  1  0.24392147  0.74741624  0.25491953  1
  Pb  Pb94  1  0.25427737  0.74957696  0.49186884  1
  Pb  Pb95  1  0.25637982  0.75449149  0.74880499  1
  Pb  Pb96  1  0.50060828  -0.00285286  -0.00149619  1
  Pb  Pb97  1  0.50863446  0.00172933  0.24503940  1
  Pb  Pb98  1  0.50266623  -0.00722999  0.49596323  1
  Pb  Pb99  1  0.49937867  -0.00896086  0.75450022  1
  Pb  Pb100  1  0.49349916  0.24300537  0.00020327  1
  Pb  Pb101  1  0.49789240  0.23536878  0.24975644  1
  Pb  Pb102  1  0.49910518  0.24552386  0.49836301  1
  Pb  Pb103  1  0.49232729  0.25011668  0.75718681  1
  Pb  Pb104  1  0.49343520  0.51827053  0.00969492  1
  Pb  Pb105  1  0.49934219  0.51074705  0.25186294  1
  Pb  Pb106  1  0.49970615  0.50465658  0.49612910  1
  Pb  Pb107  1  0.50432367  0.50556271  0.75465157  1
  Pb  Pb108  1  0.51004173  0.75573918  0.00347339  1
  Pb  Pb109  1  0.50554823  0.74579769  0.24551102  1
  Pb  Pb110  1  0.50259417  0.75726248  0.49430946  1
  Pb  Pb111  1  0.50371846  0.76275092  0.75626133  1
  Pb  Pb112  1  0.74721315  0.00362862  0.00607491  1
  Pb  Pb113  1  0.74414152  -0.00296009  0.24820175  1
  Pb  Pb114  1  0.74669058  -0.00736807  0.49540930  1
  Pb  Pb115  1  0.74970029  -0.00554110  0.74510750  1
  Pb  Pb116  1  0.74960373  0.24189996  0.00385282  1
  Pb  Pb117  1  0.74844019  0.24274391  0.24696696  1
  Pb  Pb118  1  0.75605409  0.24442131  0.50330013  1
  Pb  Pb119  1  0.75404156  0.25530344  0.75349440  1
  Pb  Pb120  1  0.74830912  0.50817150  0.00331178  1
  Pb  Pb121  1  0.74893244  0.50533299  0.24754983  1
  Pb  Pb122  1  0.75563675  0.50557457  0.50302788  1
  Pb  Pb123  1  0.74460582  0.50680727  0.75438718  1
  Pb  Pb124  1  0.74205235  0.75077688  0.00370101  1
  Pb  Pb125  1  0.74433065  0.75017509  0.24740838  1
  Pb  Pb126  1  0.74677083  0.75921155  0.49550775  1
  Pb  Pb127  1  0.74291356  0.75454136  0.74705623  1
  O  O128  1  0.12466963  -0.00711912  0.16065987  1
  O  O129  1  0.12472952  0.00119657  0.41571368  1
  O  O130  1  0.12808439  -0.00361237  0.66161741  1
  O  O131  1  0.12118493  -0.01148291  0.91292798  1
  O  O132  1  0.12613246  0.25819581  0.15773995  1
  O  O133  1  0.12376888  0.25148464  0.41913186  1
  O  O134  1  0.12535228  0.24434131  0.66314123  1
  O  O135  1  0.11965316  0.24969988  0.90481894  1
  O  O136  1  0.12444708  0.49880888  0.16443619  1
  O  O137  1  0.12296160  0.49880026  0.42006013  1
  O  O138  1  0.12607218  0.50931866  0.66518187  1
  O  O139  1  0.12248277  0.50902273  0.90999779  1
  O  O140  1  0.12552709  0.74704749  0.16503573  1
  O  O141  1  0.12438228  0.74897894  0.41531019  1
  O  O142  1  0.12765017  0.75016151  0.66147235  1
  O  O143  1  0.12124683  0.74913422  0.92021416  1
  O  O144  1  0.36938018  -0.00903429  0.15996635  1
  O  O145  1  0.37616680  -0.00470278  0.40773867  1
  O  O146  1  0.37634441  0.00536486  0.66459458  1
  O  O147  1  0.37396868  -0.00173983  0.91281223  1
  O  O148  1  0.37257116  0.26186791  0.15885654  1
  O  O149  1  0.37754825  0.26003998  0.41591313  1
  O  O150  1  0.37516871  0.24988809  0.67078801  1
  O  O151  1  0.37683917  0.25122105  0.91422322  1
  O  O152  1  0.37427610  0.48864986  0.16509994  1
  O  O153  1  0.37902099  0.49020187  0.41207862  1
  O  O154  1  0.37460676  0.50373760  0.67003790  1
  O  O155  1  0.37371494  0.50717514  0.91402207  1
  O  O156  1  0.36952241  0.75640066  0.16559703  1
  O  O157  1  0.37684456  0.75498230  0.40595932  1
  O  O158  1  0.37615755  0.74326678  0.66431681  1
  O  O159  1  0.37301563  0.74365902  0.91707225  1
  O  O160  1  0.62646593  -0.00014152  0.16094743  1
  O  O161  1  0.62563480  0.00239211  0.40956754  1
  O  O162  1  0.62218211  0.00989172  0.66110968  1
  O  O163  1  0.62925791  0.00677780  0.91518507  1
  O  O164  1  0.62820277  0.26233258  0.16194627  1
  O  O165  1  0.62728875  0.25820287  0.41604342  1
  O  O166  1  0.62439073  0.25104872  0.66907088  1
  O  O167  1  0.62911022  0.24671142  0.91466734  1
  O  O168  1  0.62775349  0.48706617  0.16293534  1
  O  O169  1  0.62738168  0.49069739  0.41562418  1
  O  O170  1  0.62509441  0.49879202  0.66868260  1
  O  O171  1  0.62733241  0.49473459  0.91348079  1
  O  O172  1  0.62727973  0.74906399  0.16068004  1
  O  O173  1  0.62565789  0.74899903  0.40773026  1
  O  O174  1  0.62285031  0.74195307  0.65832107  1
  O  O175  1  0.62723839  0.74812629  0.91678059  1
  O  O176  1  0.88143841  -0.00776605  0.16281722  1
  O  O177  1  0.87450037  0.00912877  0.40587799  1
  O  O178  1  0.87421858  0.00060955  0.66396191  1
  O  O179  1  0.87478548  0.00136520  0.91472738  1
  O  O180  1  0.88141766  0.26024252  0.16277045  1
  O  O181  1  0.87305560  0.25504726  0.41629434  1
  O  O182  1  0.87411472  0.25417052  0.66800928  1
  O  O183  1  0.87456066  0.24169663  0.91054973  1
  O  O184  1  0.88221650  0.49121153  0.16494159  1
  O  O185  1  0.87239490  0.49443794  0.41484096  1
  O  O186  1  0.87345692  0.49608219  0.66568293  1
  O  O187  1  0.87451308  0.50719176  0.91004272  1
  O  O188  1  0.87976858  0.75370584  0.16450193  1
  O  O189  1  0.87382015  0.74169152  0.40656400  1
  O  O190  1  0.87467909  0.74992650  0.66402442  1
  O  O191  1  0.87640731  0.74772091  0.91599489  1
  O  O192  1  0.00126686  0.12635095  0.16747879  1
  O  O193  1  -0.00788063  0.13141407  0.41330604  1
  O  O194  1  0.00644744  0.12214511  0.66227594  1
  O  O195  1  -0.00585461  0.11975262  0.91110585  1
  O  O196  1  0.00545075  0.37652811  0.16162832  1
  O  O197  1  -0.00977179  0.37498993  0.41555760  1
  O  O198  1  -0.00594972  0.37568330  0.66479979  1
  O  O199  1  -0.00269481  0.37830121  0.91370760  1
  O  O200  1  0.00654556  0.62321908  0.16686788  1
  O  O201  1  -0.00872914  0.61888112  0.41268556  1
  O  O202  1  0.00719435  0.62739834  0.66117252  1
  O  O203  1  -0.00321849  0.62763348  0.91285405  1
  O  O204  1  0.00491453  0.87098064  0.16510795  1
  O  O205  1  -0.00132672  0.87523027  0.41660349  1
  O  O206  1  0.00987785  0.87406597  0.66077093  1
  O  O207  1  -0.00085008  0.87134839  0.91835254  1
  O  O208  1  0.24827807  0.12563595  0.16407362  1
  O  O209  1  0.25383768  0.12822530  0.41747018  1
  O  O210  1  0.24808907  0.12416922  0.66658754  1
  O  O211  1  0.24682410  0.12269391  0.91044159  1
  O  O212  1  0.24640849  0.37921897  0.15873721  1
  O  O213  1  0.25634462  0.37567627  0.40909342  1
  O  O214  1  0.25417098  0.37650284  0.66975476  1
  O  O215  1  0.24741775  0.37911364  0.90829946  1
  O  O216  1  0.24185028  0.62222669  0.16727446  1
  O  O217  1  0.25435158  0.62196236  0.41314713  1
  O  O218  1  0.24818043  0.62619456  0.66404170  1
  O  O219  1  0.25051273  0.62739645  0.91316489  1
  O  O220  1  0.24578510  0.87136226  0.16520290  1
  O  O221  1  0.25651443  0.87486623  0.40936377  1
  O  O222  1  0.24484039  0.87355309  0.66414413  1
  O  O223  1  0.24135596  0.86772702  0.91260486  1
  O  O224  1  0.49919457  0.12870741  0.15943791  1
  O  O225  1  0.49963280  0.13069223  0.41513159  1
  O  O226  1  0.50440903  0.13057249  0.66764963  1
  O  O227  1  0.50738707  0.12543888  0.91133523  1
  O  O228  1  0.49898741  0.37514930  0.14525832  1
  O  O229  1  0.50365905  0.37426427  0.41175882  1
  O  O230  1  0.50201599  0.37602550  0.67020256  1
  O  O231  1  0.50902536  0.37166873  0.91437513  1
  O  O232  1  0.50087549  0.62048868  0.16291351  1
  O  O233  1  0.50024216  0.61965116  0.41281714  1
  O  O234  1  0.50282445  0.61899192  0.66426253  1
  O  O235  1  0.49371749  0.62436010  0.91273121  1
  O  O236  1  0.49152836  0.87343277  0.15621395  1
  O  O237  1  0.49512996  0.87566074  0.40806229  1
  O  O238  1  0.50111276  0.87537909  0.66842067  1
  O  O239  1  0.49954030  0.87413353  0.91772421  1
  O  O240  1  0.75451741  0.12852575  0.16466972  1
  O  O241  1  0.75545065  0.13218068  0.41205943  1
  O  O242  1  0.74187721  0.12916322  0.66472975  1
  O  O243  1  0.75250762  0.12383804  0.91510483  1
  O  O244  1  0.75659094  0.37589750  0.15368528  1
  O  O245  1  0.75212695  0.37432746  0.41366811  1
  O  O246  1  0.75000593  0.37481180  0.66837607  1
  O  O247  1  0.74512815  0.37266539  0.91732356  1
  O  O248  1  0.75443257  0.61944591  0.16389870  1
  O  O249  1  0.75482755  0.61817717  0.41344804  1
  O  O250  1  0.74274384  0.62157835  0.66330727  1
  O  O251  1  0.75652857  0.62573989  0.91269942  1
  O  O252  1  0.75821698  0.87451156  0.15881563  1
  O  O253  1  0.75162233  0.87581925  0.41038940  1
  O  O254  1  0.74652951  0.87480609  0.66316805  1
  O  O255  1  0.75806637  0.87456049  0.91645677  1
  O  O256  1  0.11837925  0.12119599  0.03317844  1
  O  O257  1  0.13111774  0.13069562  0.28516286  1
  O  O258  1  0.12840698  0.12663401  0.55159568  1
  O  O259  1  0.12466095  0.11218853  0.78270956  1
  O  O260  1  0.12109435  0.37932250  0.04686639  1
  O  O261  1  0.12182745  0.38047337  0.28684916  1
  O  O262  1  0.12767665  0.37880524  0.54438698  1
  O  O263  1  0.11580079  0.37970197  0.77670471  1
  O  O264  1  0.12380375  0.62527752  0.05255685  1
  O  O265  1  0.12739667  0.61708679  0.28583221  1
  O  O266  1  0.12797129  0.62288366  0.54765127  1
  O  O267  1  0.12456215  0.63130994  0.79537289  1
  O  O268  1  0.12613613  0.87172044  0.05211837  1
  O  O269  1  0.11963123  0.87141634  0.28352001  1
  O  O270  1  0.12894769  0.87593251  0.54581605  1
  O  O271  1  0.12227019  0.86988587  0.80041777  1
  O  O272  1  0.37096511  0.12542535  0.03403059  1
  O  O273  1  0.37378667  0.13300037  0.28226959  1
  O  O274  1  0.37816930  0.13079540  0.55266859  1
  O  O275  1  0.37125179  0.13041296  0.78506672  1
  O  O276  1  0.36379421  0.38031482  0.04223930  1
  O  O277  1  0.37638621  0.37266776  0.29518794  1
  O  O278  1  0.37709005  0.37591423  0.55547290  1
  O  O279  1  0.37583538  0.37397164  0.78492957  1
  O  O280  1  0.37134487  0.61939648  0.04464248  1
  O  O281  1  0.37800482  0.61954009  0.27811889  1
  O  O282  1  0.37778166  0.62147756  0.54724713  1
  O  O283  1  0.37465927  0.62840486  0.79891356  1
  O  O284  1  0.36785290  0.86991868  0.04612498  1
  O  O285  1  0.37515459  0.87594614  0.29241001  1
  O  O286  1  0.38110537  0.87457763  0.53828299  1
  O  O287  1  0.37885426  0.86787481  0.78545020  1
  O  O288  1  0.63442886  0.12850707  0.03496637  1
  O  O289  1  0.62295251  0.13261605  0.28203523  1
  O  O290  1  0.62227639  0.13185198  0.54928016  1
  O  O291  1  0.62846205  0.12536462  0.80137149  1
  O  O292  1  0.62544181  0.37550697  0.04083659  1
  O  O293  1  0.62383174  0.37382177  0.29826002  1
  O  O294  1  0.62481444  0.37469682  0.55014440  1
  O  O295  1  0.62770477  0.37646575  0.80086680  1
  O  O296  1  0.62633660  0.61652403  0.03480808  1
  O  O297  1  0.62663252  0.61593639  0.28162878  1
  O  O298  1  0.62186757  0.61838516  0.54929024  1
  O  O299  1  0.62596900  0.61864827  0.78851438  1
  O  O300  1  0.62680499  0.87236503  0.03352982  1
  O  O301  1  0.62703327  0.87853398  0.27720133  1
  O  O302  1  0.62126948  0.87664810  0.53310831  1
  O  O303  1  0.62132953  0.87424374  0.78992735  1
  O  O304  1  0.87856685  0.12330478  0.03475306  1
  O  O305  1  0.87461080  0.13352306  0.29747559  1
  O  O306  1  0.87157818  0.13312961  0.53641357  1
  O  O307  1  0.87293161  0.12141406  0.79890370  1
  O  O308  1  0.87811398  0.37727982  0.04418396  1
  O  O309  1  0.87397161  0.37325202  0.29849861  1
  O  O310  1  0.87127019  0.37385276  0.55358561  1
  O  O311  1  0.87696430  0.37157465  0.78576473  1
  O  O312  1  0.88024879  0.62188542  0.03638763  1
  O  O313  1  0.87242805  0.61835381  0.29801089  1
  O  O314  1  0.87149514  0.61874086  0.53522933  1
  O  O315  1  0.87527989  0.63019698  0.79866637  1
  O  O316  1  0.88072081  0.87195908  0.05022943  1
  O  O317  1  0.88556123  0.87460936  0.28343652  1
  O  O318  1  0.87388171  0.87439587  0.53095434  1
  O  O319  1  0.87734335  0.87378905  0.79827129  1
