# generated using pymatgen
data_VFe(PbO3)2
_symmetry_space_group_name_H-M   'P 1'
_cell_length_a   15.39853013
_cell_length_b   15.38614843
_cell_length_c   18.50294745
_cell_angle_alpha   89.98147663
_cell_angle_beta   90.05013841
_cell_angle_gamma   89.98760122
_symmetry_Int_Tables_number   1
_chemical_formula_structural   VFe(PbO3)2
_chemical_formula_sum   'V32 Fe32 Pb64 O192'
_cell_volume   4383.79160831
_cell_formula_units_Z   32
loop_
 _symmetry_equiv_pos_site_id
 _symmetry_equiv_pos_as_xyz
  1  'x, y, z'
loop_
 _atom_site_type_symbol
 _atom_site_label
 _atom_site_symmetry_multiplicity
 _atom_site_fract_x
 _atom_site_fract_y
 _atom_site_fract_z
 _atom_site_occupancy
  V  V0  1  0.87473819  0.62580141  0.89514089  1
  V  V1  1  0.12575883  0.62653750  0.13753399  1
  V  V2  1  0.88421083  0.61926297  0.38633653  1
  V  V3  1  0.12855143  0.12327079  0.88887671  1
  V  V4  1  0.12564030  0.12543148  0.62981979  1
  V  V5  1  0.12936078  0.62085033  0.38717830  1
  V  V6  1  0.87580787  0.87756598  0.14441788  1
  V  V7  1  0.37980635  0.12495764  0.14351670  1
  V  V8  1  0.62678661  0.12228012  0.88650884  1
  V  V9  1  0.37613638  0.12270102  0.88817370  1
  V  V10  1  0.62162780  0.62404917  0.63446803  1
  V  V11  1  0.87425742  0.37626225  0.39508730  1
  V  V12  1  0.62428370  0.87900790  0.14362418  1
  V  V13  1  0.37609779  0.87554672  0.89069007  1
  V  V14  1  0.62490921  0.12432519  0.39569337  1
  V  V15  1  0.38153914  0.62088090  0.38958567  1
  V  V16  1  0.87587966  0.12392185  0.14140383  1
  V  V17  1  0.12610033  0.12521332  0.14741429  1
  V  V18  1  0.12478692  0.62500360  0.63827869  1
  V  V19  1  0.87199925  0.62473796  0.63920948  1
  V  V20  1  0.87069534  0.87746860  0.88954945  1
  V  V21  1  0.63640515  0.61861804  0.38531548  1
  V  V22  1  0.37735144  0.37675819  0.39340153  1
  V  V23  1  0.87782782  0.37184562  0.13712660  1
  V  V24  1  0.37157045  0.62726991  0.89134430  1
  V  V25  1  0.87200840  0.37159271  0.88822515  1
  V  V26  1  0.38053780  0.62712239  0.13764413  1
  V  V27  1  0.12480319  0.87571534  0.89126333  1
  V  V28  1  0.12624896  0.37628799  0.39342503  1
  V  V29  1  0.62617858  0.37605242  0.39515962  1
  V  V30  1  0.87823608  0.12718821  0.39806271  1
  V  V31  1  0.62138883  0.62863814  0.89540756  1
  Fe  Fe32  1  0.37256535  0.37312125  0.13179036  1
  Fe  Fe33  1  0.62583444  0.87225159  0.62577371  1
  Fe  Fe34  1  0.37350829  0.37812273  0.63261641  1
  Fe  Fe35  1  0.12350964  0.87356063  0.38250414  1
  Fe  Fe36  1  0.87852327  0.12267644  0.88253614  1
  Fe  Fe37  1  0.37432791  0.12520338  0.62400520  1
  Fe  Fe38  1  0.62534423  0.87255040  0.39792537  1
  Fe  Fe39  1  0.37510906  0.87216099  0.38295694  1
  Fe  Fe40  1  0.87503641  0.12510279  0.62838640  1
  Fe  Fe41  1  0.62555681  0.37843404  0.63214596  1
  Fe  Fe42  1  0.12165561  0.37452648  0.64041894  1
  Fe  Fe43  1  0.12580897  0.87669840  0.14912754  1
  Fe  Fe44  1  0.37456374  0.12837211  0.39386948  1
  Fe  Fe45  1  0.87606550  0.37896898  0.63442194  1
  Fe  Fe46  1  0.37482732  0.87576185  0.14971978  1
  Fe  Fe47  1  0.12532163  0.37241007  0.13430345  1
  Fe  Fe48  1  0.87782522  0.87119359  0.62831558  1
  Fe  Fe49  1  0.12476701  0.37612616  0.88373425  1
  Fe  Fe50  1  0.62481617  0.37060879  0.13278505  1
  Fe  Fe51  1  0.37600429  0.37424930  0.89098755  1
  Fe  Fe52  1  0.87358227  0.87338797  0.39241589  1
  Fe  Fe53  1  0.12636096  0.62909812  0.88587607  1
  Fe  Fe54  1  0.62408641  0.87463407  0.88355389  1
  Fe  Fe55  1  0.37372219  0.62452080  0.63034519  1
  Fe  Fe56  1  0.62365766  0.12525108  0.62566697  1
  Fe  Fe57  1  0.62633241  0.37607152  0.88972070  1
  Fe  Fe58  1  0.62969152  0.12269949  0.14051665  1
  Fe  Fe59  1  0.62860356  0.62788133  0.13595238  1
  Fe  Fe60  1  0.37160399  0.87053637  0.62675329  1
  Fe  Fe61  1  0.12210107  0.87430567  0.62807397  1
  Fe  Fe62  1  0.12337284  0.12873397  0.38708602  1
  Fe  Fe63  1  0.87628482  0.62786350  0.13325316  1
  Pb  Pb64  1  0.00598742  -0.00393335  0.00216078  1
  Pb  Pb65  1  0.00367001  -0.00202799  0.26039232  1
  Pb  Pb66  1  0.00440950  -0.00932651  0.49654810  1
  Pb  Pb67  1  -0.00721648  0.00184768  0.74045526  1
  Pb  Pb68  1  0.00353366  0.25310991  -0.00281709  1
  Pb  Pb69  1  0.00362555  0.24522292  0.25521485  1
  Pb  Pb70  1  -0.00068511  0.26112783  0.50773349  1
  Pb  Pb71  1  -0.00570992  0.24701372  0.74354342  1
  Pb  Pb72  1  0.00386200  0.49916842  -0.00384377  1
  Pb  Pb73  1  0.00136444  0.50174449  0.24485011  1
  Pb  Pb74  1  0.00339473  0.49291363  0.50823975  1
  Pb  Pb75  1  0.00822332  0.50007511  0.75310851  1
  Pb  Pb76  1  -0.00065372  0.75123086  0.00125811  1
  Pb  Pb77  1  -0.00094820  0.75970763  0.25479318  1
  Pb  Pb78  1  0.00230863  0.75683527  0.49994814  1
  Pb  Pb79  1  0.00404915  0.74687862  0.74830597  1
  Pb  Pb80  1  0.25023191  -0.00877865  0.01023419  1
  Pb  Pb81  1  0.25068821  0.00542934  0.26023641  1
  Pb  Pb82  1  0.25111791  -0.00264614  0.48697601  1
  Pb  Pb83  1  0.25206623  -0.00182419  0.73482376  1
  Pb  Pb84  1  0.24924420  0.25710680  0.00041082  1
  Pb  Pb85  1  0.25099258  0.24312096  0.25582524  1
  Pb  Pb86  1  0.25340637  0.25108667  0.50224974  1
  Pb  Pb87  1  0.25401562  0.25758972  0.74414188  1
  Pb  Pb88  1  0.24733973  0.49276895  -0.00267954  1
  Pb  Pb89  1  0.25117959  0.49751598  0.24409606  1
  Pb  Pb90  1  0.25590651  0.49886538  0.50824899  1
  Pb  Pb91  1  0.25265177  0.49182342  0.75085984  1
  Pb  Pb92  1  0.25051129  0.76597340  0.00992818  1
  Pb  Pb93  1  0.25122319  0.75604076  0.25291441  1
  Pb  Pb94  1  0.25445636  0.75393728  0.49710710  1
  Pb  Pb95  1  0.24775469  0.74853614  0.74319185  1
  Pb  Pb96  1  0.49649563  0.00024419  0.00106934  1
  Pb  Pb97  1  0.49157035  0.00241348  0.26251267  1
  Pb  Pb98  1  0.48948579  -0.00444140  0.49782662  1
  Pb  Pb99  1  0.50272081  -0.00355204  0.73189754  1
  Pb  Pb100  1  0.50277393  0.25566984  0.00126802  1
  Pb  Pb101  1  0.49847023  0.24933839  0.25015436  1
  Pb  Pb102  1  0.50380194  0.24545563  0.50669917  1
  Pb  Pb103  1  0.49922103  0.25245213  0.73769509  1
  Pb  Pb104  1  0.50290571  0.49329087  0.00197657  1
  Pb  Pb105  1  0.50492660  0.49635818  0.24181754  1
  Pb  Pb106  1  0.49523321  0.49510076  0.50669969  1
  Pb  Pb107  1  0.49406058  0.48517694  0.75256574  1
  Pb  Pb108  1  0.49904702  0.75228848  0.00422890  1
  Pb  Pb109  1  0.51074542  0.76587284  0.26088414  1
  Pb  Pb110  1  0.49782342  0.75603926  0.50050326  1
  Pb  Pb111  1  0.50081197  0.75617069  0.74185858  1
  Pb  Pb112  1  0.74312995  0.00559691  0.00013862  1
  Pb  Pb113  1  0.75167152  -0.00876372  0.26157935  1
  Pb  Pb114  1  0.75088803  0.00694408  0.50350968  1
  Pb  Pb115  1  0.75046037  0.00039646  0.73426911  1
  Pb  Pb116  1  0.73921802  0.24647491  0.00148438  1
  Pb  Pb117  1  0.74856218  0.24825088  0.25107520  1
  Pb  Pb118  1  0.74984159  0.24471473  0.50810423  1
  Pb  Pb119  1  0.74801710  0.24823264  0.73742620  1
  Pb  Pb120  1  0.74901436  0.50757150  0.00443907  1
  Pb  Pb121  1  0.74990772  0.50187715  0.24180529  1
  Pb  Pb122  1  0.74927672  0.49142793  0.50558297  1
  Pb  Pb123  1  0.74409735  0.49355749  0.75184147  1
  Pb  Pb124  1  0.74944255  0.74394494  0.00661528  1
  Pb  Pb125  1  0.75219712  0.75851893  0.25605656  1
  Pb  Pb126  1  0.75216104  0.76144325  0.50309792  1
  Pb  Pb127  1  0.74542891  0.75751434  0.74660732  1
  O  O128  1  0.12257792  0.00830965  0.17192461  1
  O  O129  1  0.12017903  0.00101545  0.40617287  1
  O  O130  1  0.12397395  0.00659754  0.65419654  1
  O  O131  1  0.12668463  0.00026212  0.92108878  1
  O  O132  1  0.12343820  0.24449833  0.16810813  1
  O  O133  1  0.12242331  0.26040951  0.41539793  1
  O  O134  1  0.12487579  0.24171685  0.66052410  1
  O  O135  1  0.12576847  0.24135900  0.91003455  1
  O  O136  1  0.12363463  0.50493174  0.16076257  1
  O  O137  1  0.12235506  0.49919368  0.41806272  1
  O  O138  1  0.11973369  0.50843932  0.66189035  1
  O  O139  1  0.12413733  0.50271873  0.91439636  1
  O  O140  1  0.12419013  0.74232967  0.16589323  1
  O  O141  1  0.12134770  0.73615094  0.40570321  1
  O  O142  1  0.12150201  0.74447565  0.66257872  1
  O  O143  1  0.12592767  0.75643501  0.91802544  1
  O  O144  1  0.37444647  0.00838569  0.17138521  1
  O  O145  1  0.37787942  -0.00109023  0.40746656  1
  O  O146  1  0.37328419  -0.00171089  0.65351526  1
  O  O147  1  0.37366431  0.00223229  0.91898509  1
  O  O148  1  0.37265457  0.24260490  0.16543197  1
  O  O149  1  0.37352784  0.26196702  0.41362497  1
  O  O150  1  0.37257568  0.25016040  0.65732883  1
  O  O151  1  0.37331905  0.23751097  0.91117396  1
  O  O152  1  0.37254360  0.50776315  0.16107398  1
  O  O153  1  0.36837074  0.49970140  0.41709958  1
  O  O154  1  0.37344335  0.50403160  0.66477829  1
  O  O155  1  0.37877988  0.51057904  0.91487633  1
  O  O156  1  0.37241169  0.74059492  0.16676867  1
  O  O157  1  0.36933362  0.73740994  0.40641838  1
  O  O158  1  0.37155956  0.74678725  0.66357523  1
  O  O159  1  0.37748119  0.75013924  0.91874025  1
  O  O160  1  0.62788132  -0.00481866  0.17221874  1
  O  O161  1  0.62597369  0.00731627  0.41039784  1
  O  O162  1  0.62468050  -0.00238629  0.64991198  1
  O  O163  1  0.62347965  0.00388209  0.91453027  1
  O  O164  1  0.62746538  0.24798194  0.17033708  1
  O  O165  1  0.62528022  0.25590326  0.41614081  1
  O  O166  1  0.62557864  0.25207547  0.65602803  1
  O  O167  1  0.62422091  0.23993534  0.91139145  1
  O  O168  1  0.62741890  0.49769848  0.16056915  1
  O  O169  1  0.62088399  0.50494060  0.41853548  1
  O  O170  1  0.62780900  0.51064633  0.66390459  1
  O  O171  1  0.62558877  0.50850009  0.91726755  1
  O  O172  1  0.62948440  0.75927646  0.16492015  1
  O  O173  1  0.62440301  0.73013649  0.41210921  1
  O  O174  1  0.62934943  0.74129724  0.66111473  1
  O  O175  1  0.62503886  0.74851144  0.91767727  1
  O  O176  1  0.87527490  -0.00139903  0.17115260  1
  O  O177  1  0.87227400  0.00819296  0.41165330  1
  O  O178  1  0.87691760  -0.00187473  0.65485636  1
  O  O179  1  0.87732194  -0.00534552  0.91576796  1
  O  O180  1  0.87719017  0.25054180  0.16735077  1
  O  O181  1  0.87243108  0.25332278  0.41791175  1
  O  O182  1  0.87591245  0.25108023  0.65812491  1
  O  O183  1  0.87592844  0.25309321  0.90922513  1
  O  O184  1  0.87819169  0.49205581  0.15744175  1
  O  O185  1  0.87635122  0.50359255  0.41878574  1
  O  O186  1  0.87742024  0.51025936  0.66703323  1
  O  O187  1  0.87423844  0.49773306  0.91592805  1
  O  O188  1  0.87453200  0.75841272  0.16325063  1
  O  O189  1  0.87227137  0.73239566  0.40884920  1
  O  O190  1  0.87640219  0.74159945  0.66516617  1
  O  O191  1  0.87558218  0.75790798  0.91681770  1
  O  O192  1  -0.00103909  0.12540444  0.17075869  1
  O  O193  1  -0.00571703  0.13225197  0.41459675  1
  O  O194  1  0.00603761  0.12528024  0.65545346  1
  O  O195  1  0.00834584  0.12060635  0.91460991  1
  O  O196  1  -0.00379708  0.37134544  0.16483644  1
  O  O197  1  0.00190314  0.37844796  0.41699647  1
  O  O198  1  -0.00210341  0.37822865  0.66886061  1
  O  O199  1  -0.00659278  0.37416480  0.91264869  1
  O  O200  1  0.00426753  0.62456709  0.16189078  1
  O  O201  1  0.00024178  0.61721595  0.41009438  1
  O  O202  1  -0.00138669  0.62701260  0.66445054  1
  O  O203  1  -0.00285722  0.62974736  0.91782139  1
  O  O204  1  -0.00611859  0.87766473  0.16607147  1
  O  O205  1  -0.00147528  0.86929188  0.41086826  1
  O  O206  1  0.00038052  0.87134848  0.66170781  1
  O  O207  1  -0.00137011  0.87688700  0.91734165  1
  O  O208  1  0.24806481  0.12448257  0.16712691  1
  O  O209  1  0.24717954  0.13110154  0.41367782  1
  O  O210  1  0.24402769  0.12452905  0.65469645  1
  O  O211  1  0.24774949  0.12023866  0.91480705  1
  O  O212  1  0.24936465  0.37394153  0.16452597  1
  O  O213  1  0.24639947  0.37897528  0.41349006  1
  O  O214  1  0.24734775  0.37796547  0.66347937  1
  O  O215  1  0.25008433  0.37355861  0.91512711  1
  O  O216  1  0.24631276  0.62448806  0.16165449  1
  O  O217  1  0.24335226  0.61780930  0.41029731  1
  O  O218  1  0.24113920  0.62603250  0.65897738  1
  O  O219  1  0.25730098  0.62876242  0.91323606  1
  O  O220  1  0.25011653  0.87647706  0.17427120  1
  O  O221  1  0.24868852  0.86924683  0.40192033  1
  O  O222  1  0.24560436  0.87240403  0.65910519  1
  O  O223  1  0.25150375  0.87693783  0.92038460  1
  O  O224  1  0.49700226  0.12457493  0.16524672  1
  O  O225  1  0.50707200  0.13272945  0.41293489  1
  O  O226  1  0.49887545  0.12531408  0.65583749  1
  O  O227  1  0.49705760  0.12021911  0.91105427  1
  O  O228  1  0.49694675  0.37315569  0.16218844  1
  O  O229  1  0.49454767  0.38250893  0.41276725  1
  O  O230  1  0.50055526  0.38003875  0.66087697  1
  O  O231  1  0.50120877  0.37362570  0.91748070  1
  O  O232  1  0.49664648  0.62467941  0.15844505  1
  O  O233  1  0.49462084  0.61747224  0.40558047  1
  O  O234  1  0.50670456  0.62849739  0.65275719  1
  O  O235  1  0.50098845  0.62961362  0.91828611  1
  O  O236  1  0.50726251  0.87624993  0.16493751  1
  O  O237  1  0.49910268  0.86688514  0.41203652  1
  O  O238  1  0.50002893  0.86795458  0.65418169  1
  O  O239  1  0.49737738  0.87718252  0.91821058  1
  O  O240  1  0.75730432  0.12400773  0.17256025  1
  O  O241  1  0.74788794  0.13140709  0.41593815  1
  O  O242  1  0.74852856  0.12425465  0.65726046  1
  O  O243  1  0.74555669  0.12154602  0.90829652  1
  O  O244  1  0.75971615  0.37157065  0.16138098  1
  O  O245  1  0.75004860  0.38259030  0.41653880  1
  O  O246  1  0.75110894  0.38247746  0.66248690  1
  O  O247  1  0.75640293  0.37486460  0.91501268  1
  O  O248  1  0.75400128  0.62545733  0.16671846  1
  O  O249  1  0.75048916  0.61274230  0.40016517  1
  O  O250  1  0.75288352  0.62551517  0.66177852  1
  O  O251  1  0.74763999  0.62830809  0.91849162  1
  O  O252  1  0.75164723  0.87839193  0.16941090  1
  O  O253  1  0.75053702  0.87115685  0.41676039  1
  O  O254  1  0.75180121  0.86861382  0.65532290  1
  O  O255  1  0.75457522  0.87712700  0.91113532  1
  O  O256  1  0.12439531  0.12481513  0.05642615  1
  O  O257  1  0.12337251  0.13395381  0.28627378  1
  O  O258  1  0.12479636  0.12934760  0.53851054  1
  O  O259  1  0.12864260  0.11796009  0.79878582  1
  O  O260  1  0.12348225  0.36700503  0.03429846  1
  O  O261  1  0.12426567  0.37838997  0.30221245  1
  O  O262  1  0.11383714  0.37560693  0.53896029  1
  O  O263  1  0.12726032  0.37862279  0.78371993  1
  O  O264  1  0.12534414  0.62849196  0.04640295  1
  O  O265  1  0.12653930  0.61476799  0.29600147  1
  O  O266  1  0.12174782  0.62647226  0.54674260  1
  O  O267  1  0.12226056  0.63042397  0.78683843  1
  O  O268  1  0.13146355  0.88033252  0.04734213  1
  O  O269  1  0.11330758  0.87118240  0.27934147  1
  O  O270  1  0.11758015  0.86907042  0.52735708  1
  O  O271  1  0.12579465  0.87902854  0.80066464  1
  O  O272  1  0.37686271  0.12292118  0.05244012  1
  O  O273  1  0.37618677  0.13061102  0.29162267  1
  O  O274  1  0.37756591  0.12873666  0.52219535  1
  O  O275  1  0.37311874  0.11889007  0.79796118  1
  O  O276  1  0.37262348  0.37053310  0.03110235  1
  O  O277  1  0.37458354  0.37977773  0.30210780  1
  O  O278  1  0.37214062  0.38429059  0.53118125  1
  O  O279  1  0.37536317  0.37943249  0.78999281  1
  O  O280  1  0.37740348  0.62991004  0.04654774  1
  O  O281  1  0.37229163  0.61503735  0.29875186  1
  O  O282  1  0.36666970  0.62090761  0.52977923  1
  O  O283  1  0.37579324  0.62910047  0.80077624  1
  O  O284  1  0.36893291  0.87673946  0.04798781  1
  O  O285  1  0.38731645  0.87222135  0.27957336  1
  O  O286  1  0.37306650  0.86456796  0.52532245  1
  O  O287  1  0.37490321  0.87575697  0.80000075  1
  O  O288  1  0.63465630  0.12297246  0.04071500  1
  O  O289  1  0.62802181  0.13073435  0.30387740  1
  O  O290  1  0.62711394  0.13244426  0.52427038  1
  O  O291  1  0.62298473  0.12110813  0.79620217  1
  O  O292  1  0.62575699  0.36324072  0.03188326  1
  O  O293  1  0.62485268  0.37997749  0.30367205  1
  O  O294  1  0.62272462  0.38714062  0.53109586  1
  O  O295  1  0.62552335  0.38419697  0.79008781  1
  O  O296  1  0.63211227  0.63133798  0.03628142  1
  O  O297  1  0.62620497  0.61664880  0.29362880  1
  O  O298  1  0.62848088  0.62246402  0.54345966  1
  O  O299  1  0.62252906  0.62883346  0.80489051  1
  O  O300  1  0.62832483  0.88279888  0.05228200  1
  O  O301  1  0.62771861  0.86620137  0.29472610  1
  O  O302  1  0.62406400  0.86201875  0.52346830  1
  O  O303  1  0.62328409  0.86836469  0.78484085  1
  O  O304  1  0.87542918  0.12359988  0.05024881  1
  O  O305  1  0.87407234  0.13162260  0.30639895  1
  O  O306  1  0.86508803  0.12605895  0.52719533  1
  O  O307  1  0.88161874  0.11906423  0.78392002  1
  O  O308  1  0.87949772  0.36617562  0.04640266  1
  O  O309  1  0.87620097  0.37748860  0.30413189  1
  O  O310  1  0.88027609  0.38375341  0.53315852  1
  O  O311  1  0.87085090  0.37668374  0.79744749  1
  O  O312  1  0.86930331  0.63103450  0.03309719  1
  O  O313  1  0.88474197  0.61477730  0.29467998  1
  O  O314  1  0.87445047  0.62447722  0.54804711  1
  O  O315  1  0.87115315  0.62775470  0.80437684  1
  O  O316  1  0.87241313  0.88133152  0.05359774  1
  O  O317  1  0.86998745  0.87166879  0.29010470  1
  O  O318  1  0.87928266  0.86415588  0.52644536  1
  O  O319  1  0.87517538  0.87647728  0.79874036  1
