# generated using pymatgen
data_VFe(PbO3)2
_symmetry_space_group_name_H-M   'P 1'
_cell_length_a   15.38163413
_cell_length_b   15.38864319
_cell_length_c   18.50933821
_cell_angle_alpha   89.92699290
_cell_angle_beta   89.99692850
_cell_angle_gamma   89.97740950
_symmetry_Int_Tables_number   1
_chemical_formula_structural   VFe(PbO3)2
_chemical_formula_sum   'V32 Fe32 Pb64 O192'
_cell_volume   4381.20234343
_cell_formula_units_Z   32
loop_
 _symmetry_equiv_pos_site_id
 _symmetry_equiv_pos_as_xyz
  1  'x, y, z'
loop_
 _atom_site_type_symbol
 _atom_site_label
 _atom_site_symmetry_multiplicity
 _atom_site_fract_x
 _atom_site_fract_y
 _atom_site_fract_z
 _atom_site_occupancy
  V  V0  1  0.62548261  0.12634357  0.13708794  1
  V  V1  1  0.62640235  0.62232997  0.63848626  1
  V  V2  1  0.87533761  0.37591290  0.89728335  1
  V  V3  1  0.37729457  0.37320700  0.63734872  1
  V  V4  1  0.37474896  0.37354186  0.14522578  1
  V  V5  1  0.86848364  0.87364038  0.13593594  1
  V  V6  1  0.12660509  0.62317493  0.88809001  1
  V  V7  1  0.87687453  0.87551553  0.38878722  1
  V  V8  1  0.12403008  0.36986997  0.63721968  1
  V  V9  1  0.87435400  0.37382445  0.64243698  1
  V  V10  1  0.87589363  0.12560654  0.38641446  1
  V  V11  1  0.62535028  0.87337875  0.64327216  1
  V  V12  1  0.12487968  0.62517975  0.14240522  1
  V  V13  1  0.12437535  0.87541866  0.64111864  1
  V  V14  1  0.12157122  0.37632520  0.38463796  1
  V  V15  1  0.62442685  0.62441357  0.89063275  1
  V  V16  1  0.12473881  0.12493598  0.64113798  1
  V  V17  1  0.62530413  0.12613101  0.64671348  1
  V  V18  1  0.37506489  0.62751538  0.14612767  1
  V  V19  1  0.37622622  0.12149893  0.14112945  1
  V  V20  1  0.12437972  0.37724134  0.89749729  1
  V  V21  1  0.37419350  0.37664328  0.89072360  1
  V  V22  1  0.87545156  0.12602247  0.64849065  1
  V  V23  1  0.37420204  0.12365462  0.64499528  1
  V  V24  1  0.12554355  0.87601405  0.13892707  1
  V  V25  1  0.61528764  0.87610417  0.13844294  1
  V  V26  1  0.87412548  0.62245020  0.38727598  1
  V  V27  1  0.37382716  0.62069105  0.88657380  1
  V  V28  1  0.12815784  0.12308582  0.89253004  1
  V  V29  1  0.62788112  0.37402309  0.38505082  1
  V  V30  1  0.12413036  0.87490629  0.39059461  1
  V  V31  1  0.87666075  0.62291829  0.89049534  1
  Fe  Fe32  1  0.12194819  0.12163267  0.38334640  1
  Fe  Fe33  1  0.62424261  0.62731866  0.13964230  1
  Fe  Fe34  1  0.37623931  0.62407412  0.63158371  1
  Fe  Fe35  1  0.87493890  0.63087460  0.13259344  1
  Fe  Fe36  1  0.87438682  0.37547750  0.13406020  1
  Fe  Fe37  1  0.37359162  0.37357497  0.38137086  1
  Fe  Fe38  1  0.87429895  0.87682568  0.64643553  1
  Fe  Fe39  1  0.37555503  0.87714166  0.37681111  1
  Fe  Fe40  1  0.37298239  0.12741249  0.88190091  1
  Fe  Fe41  1  0.62109322  0.37655082  0.12948610  1
  Fe  Fe42  1  0.37572326  0.87620311  0.63808407  1
  Fe  Fe43  1  0.62697631  0.37202978  0.63803756  1
  Fe  Fe44  1  0.62837136  0.62833237  0.38029971  1
  Fe  Fe45  1  0.62418410  0.37869917  0.89467997  1
  Fe  Fe46  1  0.36915317  0.87296197  0.14763669  1
  Fe  Fe47  1  0.87576262  0.37408196  0.37801639  1
  Fe  Fe48  1  0.12355412  0.62330822  0.62823930  1
  Fe  Fe49  1  0.12244420  0.62768496  0.39572769  1
  Fe  Fe50  1  0.12691777  0.12427050  0.13320623  1
  Fe  Fe51  1  0.62897244  0.12260423  0.38267481  1
  Fe  Fe52  1  0.87433305  0.12011873  0.12564530  1
  Fe  Fe53  1  0.37246400  0.87105989  0.88105941  1
  Fe  Fe54  1  0.12513247  0.86996223  0.88215183  1
  Fe  Fe55  1  0.37481407  0.12628296  0.38204618  1
  Fe  Fe56  1  0.87635045  0.87266553  0.87965720  1
  Fe  Fe57  1  0.87333783  0.62371735  0.63770802  1
  Fe  Fe58  1  0.62905102  0.87627045  0.38274613  1
  Fe  Fe59  1  0.62423060  0.87296623  0.88158958  1
  Fe  Fe60  1  0.87573249  0.12696189  0.89142959  1
  Fe  Fe61  1  0.62188343  0.12615294  0.88473112  1
  Fe  Fe62  1  0.12917990  0.37671016  0.13340118  1
  Fe  Fe63  1  0.37601145  0.62281526  0.38744826  1
  Pb  Pb64  1  -0.00153223  0.00222890  -0.00531220  1
  Pb  Pb65  1  0.00347230  0.00720620  0.24440512  1
  Pb  Pb66  1  -0.00632021  -0.00691260  0.50526293  1
  Pb  Pb67  1  -0.00274901  -0.00236200  0.75707372  1
  Pb  Pb68  1  0.00161664  0.24370285  0.00873625  1
  Pb  Pb69  1  0.00037994  0.24859573  0.23624782  1
  Pb  Pb70  1  0.00001576  0.25134204  0.49403701  1
  Pb  Pb71  1  -0.00426788  0.24534446  0.75848571  1
  Pb  Pb72  1  -0.00603442  0.49616658  0.00852319  1
  Pb  Pb73  1  -0.00473074  0.49384820  0.24455418  1
  Pb  Pb74  1  -0.00351270  0.50728754  0.50121830  1
  Pb  Pb75  1  0.00207921  0.50307593  0.74700818  1
  Pb  Pb76  1  -0.00388177  0.74784142  -0.00418854  1
  Pb  Pb77  1  0.00793132  0.74590245  0.25408451  1
  Pb  Pb78  1  -0.00787585  0.74671345  0.50698157  1
  Pb  Pb79  1  -0.00144098  0.75301703  0.74715612  1
  Pb  Pb80  1  0.25809962  -0.00808548  -0.00149940  1
  Pb  Pb81  1  0.25396616  0.00185783  0.25333633  1
  Pb  Pb82  1  0.25795868  -0.00361265  0.49631606  1
  Pb  Pb83  1  0.25135069  -0.00773801  0.75458189  1
  Pb  Pb84  1  0.24068062  0.24895847  0.00649343  1
  Pb  Pb85  1  0.24650261  0.24219228  0.25056504  1
  Pb  Pb86  1  0.24925531  0.24689804  0.49131431  1
  Pb  Pb87  1  0.25363569  0.24696451  0.75227186  1
  Pb  Pb88  1  0.24639999  0.49892563  0.00430631  1
  Pb  Pb89  1  0.25680179  0.50301608  0.25817499  1
  Pb  Pb90  1  0.25251653  0.50798783  0.49685826  1
  Pb  Pb91  1  0.24919580  0.50216002  0.74107727  1
  Pb  Pb92  1  0.25847488  0.75923838  0.00383405  1
  Pb  Pb93  1  0.24759849  0.73930283  0.26118665  1
  Pb  Pb94  1  0.26482000  0.74929866  0.49878033  1
  Pb  Pb95  1  0.25240176  0.75324756  0.74477877  1
  Pb  Pb96  1  0.49471280  -0.00518975  -0.01142457  1
  Pb  Pb97  1  0.50017602  -0.00005346  0.25479877  1
  Pb  Pb98  1  0.49783989  -0.00383268  0.49032388  1
  Pb  Pb99  1  0.50555433  -0.00043947  0.75564758  1
  Pb  Pb100  1  0.50381467  0.25159573  -0.00354405  1
  Pb  Pb101  1  0.49347356  0.24582938  0.25255463  1
  Pb  Pb102  1  0.50201226  0.24746915  0.49362490  1
  Pb  Pb103  1  0.50273988  0.24364036  0.75692818  1
  Pb  Pb104  1  0.50967538  0.50519689  0.00760534  1
  Pb  Pb105  1  0.49652734  0.49911025  0.25223961  1
  Pb  Pb106  1  0.49865253  0.50347808  0.49327916  1
  Pb  Pb107  1  0.50639683  0.49223965  0.75046377  1
  Pb  Pb108  1  0.49968161  0.74919604  -0.00110590  1
  Pb  Pb109  1  0.50077614  0.74332174  0.25792323  1
  Pb  Pb110  1  0.49811350  0.75331826  0.48895525  1
  Pb  Pb111  1  0.49570331  0.75518051  0.74793069  1
  Pb  Pb112  1  0.75186108  -0.00091717  -0.01361467  1
  Pb  Pb113  1  0.73813135  0.00034872  0.25178823  1
  Pb  Pb114  1  0.75346538  -0.00353879  0.50096018  1
  Pb  Pb115  1  0.74648825  -0.00054588  0.75904250  1
  Pb  Pb116  1  0.75095827  0.25163445  -0.00100644  1
  Pb  Pb117  1  0.75615486  0.25507472  0.24063675  1
  Pb  Pb118  1  0.74586544  0.25534397  0.49959110  1
  Pb  Pb119  1  0.74786779  0.24252898  0.76123982  1
  Pb  Pb120  1  0.75500868  0.49954659  0.01005189  1
  Pb  Pb121  1  0.74974757  0.50029278  0.23747103  1
  Pb  Pb122  1  0.74522495  0.49443046  0.49744258  1
  Pb  Pb123  1  0.74368248  0.49159247  0.75547186  1
  Pb  Pb124  1  0.74813811  0.74244873  -0.00157911  1
  Pb  Pb125  1  0.74255983  0.74991431  0.25033691  1
  Pb  Pb126  1  0.75648167  0.74988962  0.49936816  1
  Pb  Pb127  1  0.75196793  0.75538621  0.75173770  1
  O  O128  1  0.12783409  -0.00650824  0.15801040  1
  O  O129  1  0.11957442  -0.00758371  0.41615440  1
  O  O130  1  0.12518863  0.00378278  0.66834249  1
  O  O131  1  0.12652258  0.00636954  0.90728788  1
  O  O132  1  0.12925849  0.25079418  0.16010036  1
  O  O133  1  0.11910742  0.25452633  0.41108327  1
  O  O134  1  0.12435815  0.25068750  0.66962508  1
  O  O135  1  0.12685030  0.25458963  0.91887985  1
  O  O136  1  0.12894183  0.50798253  0.16372975  1
  O  O137  1  0.11984066  0.49190167  0.41139123  1
  O  O138  1  0.12344552  0.49093364  0.66214013  1
  O  O139  1  0.12411239  0.50347170  0.92096558  1
  O  O140  1  0.12805616  0.74650033  0.16803246  1
  O  O141  1  0.11940996  0.76048607  0.41927689  1
  O  O142  1  0.12354837  0.75649310  0.65508505  1
  O  O143  1  0.12471157  0.73839469  0.90916933  1
  O  O144  1  0.37405276  0.00580992  0.16170719  1
  O  O145  1  0.37221595  0.00060513  0.41085909  1
  O  O146  1  0.37535709  0.00450123  0.66532522  1
  O  O147  1  0.36956894  -0.00028084  0.90671770  1
  O  O148  1  0.37733987  0.24913311  0.16381434  1
  O  O149  1  0.37564219  0.25187604  0.41553803  1
  O  O150  1  0.37556251  0.25581946  0.66702478  1
  O  O151  1  0.37169385  0.26149599  0.91244437  1
  O  O152  1  0.37515245  0.50139515  0.16646641  1
  O  O153  1  0.37566747  0.49451721  0.41467107  1
  O  O154  1  0.37557152  0.49171159  0.66119190  1
  O  O155  1  0.37377636  0.50248973  0.92043977  1
  O  O156  1  0.37182463  0.74350068  0.16819751  1
  O  O157  1  0.37351196  0.75226310  0.40659107  1
  O  O158  1  0.37649250  0.74866830  0.66180183  1
  O  O159  1  0.37092845  0.73935802  0.91344269  1
  O  O160  1  0.62439901  -0.00324843  0.16266046  1
  O  O161  1  0.63169530  -0.00002591  0.41804580  1
  O  O162  1  0.62493082  0.00274456  0.66751445  1
  O  O163  1  0.62199306  -0.00115905  0.91073362  1
  O  O164  1  0.62159788  0.24163525  0.15603894  1
  O  O165  1  0.63141104  0.25313383  0.41150218  1
  O  O166  1  0.62617505  0.24541663  0.66712517  1
  O  O167  1  0.62263758  0.25327568  0.91386034  1
  O  O168  1  0.62104596  0.50044102  0.15931048  1
  O  O169  1  0.63156379  0.49393275  0.40729631  1
  O  O170  1  0.62655442  0.50259811  0.66425426  1
  O  O171  1  0.62393534  0.50864255  0.91827945  1
  O  O172  1  0.62333191  0.76109560  0.16437977  1
  O  O173  1  0.63090080  0.75171546  0.41419144  1
  O  O174  1  0.62603455  0.75125730  0.66059374  1
  O  O175  1  0.62302181  0.74236277  0.91342420  1
  O  O176  1  0.88031980  -0.01076883  0.15867517  1
  O  O177  1  0.87668780  0.00256684  0.41551256  1
  O  O178  1  0.87474158  0.00687440  0.67087318  1
  O  O179  1  0.87971230  -0.00093563  0.90720193  1
  O  O180  1  0.87323928  0.24522859  0.15412219  1
  O  O181  1  0.87667239  0.24398494  0.40818733  1
  O  O182  1  0.87437370  0.25413364  0.67282534  1
  O  O183  1  0.87811372  0.25903144  0.91603117  1
  O  O184  1  0.87493889  0.50513163  0.15981795  1
  O  O185  1  0.87493346  0.50448951  0.40644327  1
  O  O186  1  0.87474874  0.49144630  0.66549650  1
  O  O187  1  0.87549283  0.50131042  0.92025374  1
  O  O188  1  0.88086654  0.75998812  0.16529416  1
  O  O189  1  0.87593316  0.74893356  0.41409325  1
  O  O190  1  0.87372260  0.74871568  0.66684280  1
  O  O191  1  0.87724915  0.74323910  0.91090456  1
  O  O192  1  -0.00067262  0.12040167  0.15755927  1
  O  O193  1  -0.00644724  0.12291039  0.41511520  1
  O  O194  1  0.00151963  0.12852624  0.67186475  1
  O  O195  1  0.00920130  0.13192762  0.91442695  1
  O  O196  1  0.00314291  0.37796605  0.15791778  1
  O  O197  1  0.00080987  0.37375469  0.41261340  1
  O  O198  1  -0.00393861  0.37158805  0.66564573  1
  O  O199  1  -0.00180094  0.38049257  0.91968797  1
  O  O200  1  0.00696565  0.62820272  0.16166314  1
  O  O201  1  -0.00869035  0.62626097  0.41563938  1
  O  O202  1  0.00132251  0.62169061  0.66529863  1
  O  O203  1  0.00430606  0.62036524  0.91373663  1
  O  O204  1  0.00968804  0.87197008  0.16341150  1
  O  O205  1  -0.00243944  0.87635226  0.42028294  1
  O  O206  1  0.00670486  0.88026263  0.66664569  1
  O  O207  1  0.00207537  0.87106865  0.91234030  1
  O  O208  1  0.25723828  0.12616691  0.16209189  1
  O  O209  1  0.24610263  0.12602118  0.41307907  1
  O  O210  1  0.24867784  0.12975984  0.66786300  1
  O  O211  1  0.24577401  0.13221696  0.91391832  1
  O  O212  1  0.25740331  0.37658031  0.16733318  1
  O  O213  1  0.24032135  0.37279875  0.40698996  1
  O  O214  1  0.25229502  0.37253572  0.66129513  1
  O  O215  1  0.25447924  0.38258128  0.91774631  1
  O  O216  1  0.25040360  0.62463603  0.16991570  1
  O  O217  1  0.24845788  0.62356840  0.41455461  1
  O  O218  1  0.24817297  0.62104242  0.65850064  1
  O  O219  1  0.24503760  0.61839979  0.91022431  1
  O  O220  1  0.23954784  0.87134254  0.17032005  1
  O  O221  1  0.24206575  0.87648961  0.40843738  1
  O  O222  1  0.24354733  0.87877862  0.66278644  1
  O  O223  1  0.24776144  0.87101606  0.91710863  1
  O  O224  1  0.50004512  0.12161369  0.16399504  1
  O  O225  1  0.50267279  0.12649992  0.41278045  1
  O  O226  1  0.50346578  0.12728653  0.66655971  1
  O  O227  1  0.49517369  0.12872589  0.91383615  1
  O  O228  1  0.49446353  0.37380565  0.16498616  1
  O  O229  1  0.51079981  0.37287713  0.40773003  1
  O  O230  1  0.49560721  0.37380938  0.66165496  1
  O  O231  1  0.49023680  0.38235329  0.91521913  1
  O  O232  1  0.49284399  0.62776835  0.16630262  1
  O  O233  1  0.50458589  0.62305194  0.41081702  1
  O  O234  1  0.50951184  0.62399214  0.66292178  1
  O  O235  1  0.50055977  0.62427184  0.91309356  1
  O  O236  1  0.50151142  0.87812048  0.15931680  1
  O  O237  1  0.50140504  0.87728982  0.40584392  1
  O  O238  1  0.50687616  0.87731149  0.66367067  1
  O  O239  1  0.49706125  0.86865892  0.91033300  1
  O  O240  1  0.74329546  0.11764720  0.15351278  1
  O  O241  1  0.76017470  0.12376825  0.41374266  1
  O  O242  1  0.74718992  0.12670686  0.67174745  1
  O  O243  1  0.74874583  0.12831464  0.91194671  1
  O  O244  1  0.74554211  0.37318320  0.15839326  1
  O  O245  1  0.75011753  0.37300819  0.41276276  1
  O  O246  1  0.75655061  0.37289333  0.66912470  1
  O  O247  1  0.75636414  0.38017950  0.91510803  1
  O  O248  1  0.75106993  0.63413430  0.16121696  1
  O  O249  1  0.75705430  0.62623066  0.41137937  1
  O  O250  1  0.74206594  0.62444337  0.66804239  1
  O  O251  1  0.74684241  0.62459866  0.91138928  1
  O  O252  1  0.75285590  0.87481778  0.15362585  1
  O  O253  1  0.75843261  0.87638018  0.41709058  1
  O  O254  1  0.74279792  0.87841582  0.66753448  1
  O  O255  1  0.75063471  0.87034468  0.90889076  1
  O  O256  1  0.12762613  0.12954733  0.03301221  1
  O  O257  1  0.12387064  0.11982550  0.28346745  1
  O  O258  1  0.12223733  0.12597761  0.55012300  1
  O  O259  1  0.12756682  0.13139535  0.80121516  1
  O  O260  1  0.13478132  0.37981057  0.03301389  1
  O  O261  1  0.11895000  0.37635289  0.29370468  1
  O  O262  1  0.12011614  0.36784745  0.54624795  1
  O  O263  1  0.12587662  0.37763848  0.80705227  1
  O  O264  1  0.12986895  0.62844019  0.05163534  1
  O  O265  1  0.12320975  0.63565982  0.29446169  1
  O  O266  1  0.11534184  0.61857573  0.52780293  1
  O  O267  1  0.12425597  0.61761554  0.79695829  1
  O  O268  1  0.12899208  0.86978972  0.04747038  1
  O  O269  1  0.11768957  0.87316418  0.29935044  1
  O  O270  1  0.12151818  0.88441302  0.55045251  1
  O  O271  1  0.13037230  0.87456222  0.78257657  1
  O  O272  1  0.37740142  0.12586818  0.05020369  1
  O  O273  1  0.37593102  0.12757127  0.28128021  1
  O  O274  1  0.37448101  0.12988925  0.55397803  1
  O  O275  1  0.37490227  0.13733831  0.78173895  1
  O  O276  1  0.37407252  0.37599516  0.05439325  1
  O  O277  1  0.37998241  0.37639536  0.28171513  1
  O  O278  1  0.37625546  0.37099540  0.54664163  1
  O  O279  1  0.37407059  0.38042429  0.79961881  1
  O  O280  1  0.37196099  0.62642563  0.05496621  1
  O  O281  1  0.37322497  0.61842621  0.28545526  1
  O  O282  1  0.37591267  0.62218075  0.53134037  1
  O  O283  1  0.37456706  0.61787744  0.79550110  1
  O  O284  1  0.36078124  0.87126875  0.04587266  1
  O  O285  1  0.37309683  0.88459456  0.27521072  1
  O  O286  1  0.36999152  0.87696456  0.53789743  1
  O  O287  1  0.36770577  0.86743452  0.77997393  1
  O  O288  1  0.61837532  0.12212056  0.04659273  1
  O  O289  1  0.63087393  0.11576496  0.28271743  1
  O  O290  1  0.62868125  0.12547116  0.55599758  1
  O  O291  1  0.62036441  0.12616469  0.78313479  1
  O  O292  1  0.61925532  0.37968825  0.02838812  1
  O  O293  1  0.63042333  0.37085420  0.29426436  1
  O  O294  1  0.63716228  0.37356358  0.53902265  1
  O  O295  1  0.62415877  0.38692036  0.79274867  1
  O  O296  1  0.61846050  0.63269661  0.03864066  1
  O  O297  1  0.62524166  0.63783348  0.27963370  1
  O  O298  1  0.63016361  0.62076114  0.54773752  1
  O  O299  1  0.62309692  0.62227541  0.79952879  1
  O  O300  1  0.61967883  0.87453027  0.04734748  1
  O  O301  1  0.63353184  0.88091282  0.28182594  1
  O  O302  1  0.62817766  0.87776991  0.55265821  1
  O  O303  1  0.62311595  0.87519457  0.78111086  1
  O  O304  1  0.88074733  0.12205508  0.02513486  1
  O  O305  1  0.87710212  0.12065330  0.29538352  1
  O  O306  1  0.87452982  0.12992286  0.55762082  1
  O  O307  1  0.87798077  0.13670879  0.78967864  1
  O  O308  1  0.87179057  0.38412301  0.03261216  1
  O  O309  1  0.87300313  0.37287807  0.27859463  1
  O  O310  1  0.87316876  0.37082286  0.55124807  1
  O  O311  1  0.87757779  0.37945488  0.80600917  1
  O  O312  1  0.87461194  0.63131925  0.03219505  1
  O  O313  1  0.87703342  0.62863250  0.29629008  1
  O  O314  1  0.87682670  0.62483382  0.53811736  1
  O  O315  1  0.87704706  0.61776165  0.79917282  1
  O  O316  1  0.87763657  0.86991324  0.04491624  1
  O  O317  1  0.87737058  0.87684523  0.29797098  1
  O  O318  1  0.87757041  0.88021609  0.54540528  1
  O  O319  1  0.87754559  0.87265770  0.77776826  1
