# generated using pymatgen
data_VFe(PbO3)2
_symmetry_space_group_name_H-M   'P 1'
_cell_length_a   15.39366133
_cell_length_b   15.37635063
_cell_length_c   18.54146885
_cell_angle_alpha   89.98466652
_cell_angle_beta   90.01821170
_cell_angle_gamma   89.98410408
_symmetry_Int_Tables_number   1
_chemical_formula_structural   VFe(PbO3)2
_chemical_formula_sum   'V32 Fe32 Pb64 O192'
_cell_volume   4388.73424137
_cell_formula_units_Z   32
loop_
 _symmetry_equiv_pos_site_id
 _symmetry_equiv_pos_as_xyz
  1  'x, y, z'
loop_
 _atom_site_type_symbol
 _atom_site_label
 _atom_site_symmetry_multiplicity
 _atom_site_fract_x
 _atom_site_fract_y
 _atom_site_fract_z
 _atom_site_occupancy
  V  V0  1  0.62520749  0.62584269  0.38894726  1
  V  V1  1  0.87506478  0.37523117  0.89083555  1
  V  V2  1  0.87926025  0.36731919  0.63659705  1
  V  V3  1  0.62565437  0.62298102  0.14116541  1
  V  V4  1  0.12485253  0.62126365  0.14664869  1
  V  V5  1  0.37438657  0.87320412  0.89310066  1
  V  V6  1  0.87866772  0.12081715  0.63607384  1
  V  V7  1  0.87450208  0.87202666  0.89600960  1
  V  V8  1  0.12656556  0.12555615  0.13682797  1
  V  V9  1  0.87285610  0.37313871  0.38449190  1
  V  V10  1  0.12334143  0.62887312  0.89226170  1
  V  V11  1  0.87902234  0.62341290  0.63662797  1
  V  V12  1  0.12276541  0.87203253  0.14106719  1
  V  V13  1  0.87275713  0.87671093  0.38374200  1
  V  V14  1  0.62577211  0.37550732  0.14371684  1
  V  V15  1  0.87555609  0.37570339  0.14532517  1
  V  V16  1  0.62326207  0.87612364  0.89562628  1
  V  V17  1  0.87371768  0.12448257  0.14662663  1
  V  V18  1  0.37634434  0.12670455  0.89183495  1
  V  V19  1  0.62601875  0.62687757  0.89050020  1
  V  V20  1  0.12805013  0.12266306  0.38404564  1
  V  V21  1  0.62728895  0.12357764  0.38947285  1
  V  V22  1  0.62447797  0.37475985  0.88976229  1
  V  V23  1  0.12553934  0.37504118  0.89412548  1
  V  V24  1  0.37796574  0.12366163  0.38964251  1
  V  V25  1  0.62510034  0.12636610  0.13762121  1
  V  V26  1  0.87712533  0.87580284  0.63572735  1
  V  V27  1  0.87385620  0.62739167  0.15092725  1
  V  V28  1  0.12369977  0.87407572  0.64046223  1
  V  V29  1  0.37614117  0.87482685  0.38829802  1
  V  V30  1  0.12445576  0.12591986  0.64156115  1
  V  V31  1  0.87497286  0.12595422  0.89518717  1
  Fe  Fe32  1  0.12358421  0.37422558  0.14936262  1
  Fe  Fe33  1  0.87219680  0.62549455  0.37840710  1
  Fe  Fe34  1  0.12558273  0.12466919  0.89121688  1
  Fe  Fe35  1  0.12693591  0.87965854  0.38078778  1
  Fe  Fe36  1  0.37497601  0.37620618  0.88618960  1
  Fe  Fe37  1  0.62670822  0.62540490  0.62964037  1
  Fe  Fe38  1  0.37616105  0.62599214  0.14313126  1
  Fe  Fe39  1  0.37556310  0.87925227  0.63213153  1
  Fe  Fe40  1  0.12293533  0.62540809  0.62780170  1
  Fe  Fe41  1  0.62761949  0.37716019  0.62838965  1
  Fe  Fe42  1  0.12403061  0.62812713  0.38181107  1
  Fe  Fe43  1  0.37558695  0.37312897  0.13665358  1
  Fe  Fe44  1  0.87436974  0.87403936  0.13650994  1
  Fe  Fe45  1  0.62343413  0.87679092  0.39249253  1
  Fe  Fe46  1  0.87565968  0.12516569  0.37973698  1
  Fe  Fe47  1  0.37450165  0.12182843  0.63298542  1
  Fe  Fe48  1  0.62641403  0.87346138  0.13226125  1
  Fe  Fe49  1  0.37521020  0.87539349  0.13512642  1
  Fe  Fe50  1  0.12053767  0.37637659  0.63154489  1
  Fe  Fe51  1  0.37494970  0.37246869  0.39209452  1
  Fe  Fe52  1  0.37572744  0.62565351  0.38564669  1
  Fe  Fe53  1  0.12377475  0.37202531  0.37549454  1
  Fe  Fe54  1  0.37430916  0.62435290  0.88677117  1
  Fe  Fe55  1  0.87553891  0.62157727  0.88818693  1
  Fe  Fe56  1  0.62879385  0.12582116  0.63452337  1
  Fe  Fe57  1  0.62916747  0.87422468  0.62853809  1
  Fe  Fe58  1  0.37308771  0.62821560  0.62489992  1
  Fe  Fe59  1  0.37797088  0.12456375  0.13571648  1
  Fe  Fe60  1  0.62507734  0.37355478  0.39040011  1
  Fe  Fe61  1  0.12633979  0.87592194  0.88797716  1
  Fe  Fe62  1  0.37182987  0.37338215  0.62515081  1
  Fe  Fe63  1  0.62649666  0.12528205  0.88786977  1
  Pb  Pb64  1  -0.00044907  -0.00171693  0.00330323  1
  Pb  Pb65  1  -0.00137176  0.00051115  0.24976064  1
  Pb  Pb66  1  -0.00275300  0.00042232  0.49231497  1
  Pb  Pb67  1  0.00737952  -0.00106497  0.75839183  1
  Pb  Pb68  1  0.00844723  0.25739556  0.00902245  1
  Pb  Pb69  1  -0.00074902  0.24728713  0.25311570  1
  Pb  Pb70  1  0.00369246  0.25495995  0.49397583  1
  Pb  Pb71  1  0.00646916  0.24312423  0.75370090  1
  Pb  Pb72  1  0.00702752  0.49448521  0.00822441  1
  Pb  Pb73  1  0.00227872  0.51137202  0.26017945  1
  Pb  Pb74  1  0.01028791  0.50107950  0.48978116  1
  Pb  Pb75  1  0.00165254  0.50586686  0.74733273  1
  Pb  Pb76  1  -0.00356291  0.75197229  0.00387062  1
  Pb  Pb77  1  0.00779627  0.75198454  0.25637279  1
  Pb  Pb78  1  0.00502273  0.74489686  0.49010773  1
  Pb  Pb79  1  0.00066718  0.75315346  0.75037234  1
  Pb  Pb80  1  0.25549327  0.00096441  0.00184281  1
  Pb  Pb81  1  0.24746480  -0.00415148  0.24607483  1
  Pb  Pb82  1  0.25793719  0.00014898  0.50266059  1
  Pb  Pb83  1  0.24331732  -0.00084015  0.75171975  1
  Pb  Pb84  1  0.25751829  0.25418641  0.00622546  1
  Pb  Pb85  1  0.25837938  0.26168977  0.25149041  1
  Pb  Pb86  1  0.24816875  0.25825137  0.49869038  1
  Pb  Pb87  1  0.26023355  0.26246886  0.74681160  1
  Pb  Pb88  1  0.25450348  0.49735561  0.00446823  1
  Pb  Pb89  1  0.26263514  0.49615668  0.25516850  1
  Pb  Pb90  1  0.24812996  0.49807334  0.48722206  1
  Pb  Pb91  1  0.25616857  0.50105975  0.73702168  1
  Pb  Pb92  1  0.26027637  0.74694498  0.00769619  1
  Pb  Pb93  1  0.25267584  0.74177722  0.25589403  1
  Pb  Pb94  1  0.24948751  0.74268650  0.49434621  1
  Pb  Pb95  1  0.25997473  0.73906998  0.74561501  1
  Pb  Pb96  1  0.49489553  -0.00072882  0.00271746  1
  Pb  Pb97  1  0.50356473  -0.00848836  0.24619996  1
  Pb  Pb98  1  0.49234753  0.00135475  0.50605580  1
  Pb  Pb99  1  0.50429539  0.00100544  0.73983548  1
  Pb  Pb100  1  0.49062068  0.25105891  0.00375100  1
  Pb  Pb101  1  0.49826589  0.26041770  0.25452178  1
  Pb  Pb102  1  0.49845663  0.25421794  0.50173499  1
  Pb  Pb103  1  0.49860955  0.25386715  0.73702149  1
  Pb  Pb104  1  0.49061168  0.49976496  0.00081110  1
  Pb  Pb105  1  0.49155814  0.49717156  0.25497603  1
  Pb  Pb106  1  0.49327803  0.49863659  0.49627878  1
  Pb  Pb107  1  0.49140119  0.50050199  0.73416089  1
  Pb  Pb108  1  0.49104981  0.74758099  0.00684333  1
  Pb  Pb109  1  0.49661187  0.75179277  0.24855258  1
  Pb  Pb110  1  0.49785323  0.74484198  0.50122562  1
  Pb  Pb111  1  0.49921834  0.74769552  0.73724285  1
  Pb  Pb112  1  0.74975867  -0.00805924  0.00657275  1
  Pb  Pb113  1  0.74434561  -0.00618932  0.25076541  1
  Pb  Pb114  1  0.74179268  0.00098845  0.50104670  1
  Pb  Pb115  1  0.74586685  0.00331008  0.74790469  1
  Pb  Pb116  1  0.75040696  0.24914111  0.00267833  1
  Pb  Pb117  1  0.74500116  0.25090635  0.25567641  1
  Pb  Pb118  1  0.74272793  0.24735439  0.50105752  1
  Pb  Pb119  1  0.74179822  0.24613691  0.75022557  1
  Pb  Pb120  1  0.74927360  0.50069304  0.00082231  1
  Pb  Pb121  1  0.74752997  0.49932294  0.25662522  1
  Pb  Pb122  1  0.74347322  0.50032358  0.49807513  1
  Pb  Pb123  1  0.75318497  0.50424623  0.74495741  1
  Pb  Pb124  1  0.74919422  0.75526356  0.00639463  1
  Pb  Pb125  1  0.74475438  0.75732367  0.25229184  1
  Pb  Pb126  1  0.74306827  0.75026806  0.49879821  1
  Pb  Pb127  1  0.75317344  0.74810554  0.74521298  1
  O  O128  1  0.12003068  0.00133579  0.16026664  1
  O  O129  1  0.12546258  0.00527042  0.41325191  1
  O  O130  1  0.11672696  0.00139860  0.66747233  1
  O  O131  1  0.12307371  -0.00027682  0.92210607  1
  O  O132  1  0.11979789  0.23954798  0.16165651  1
  O  O133  1  0.12478416  0.24020834  0.40757076  1
  O  O134  1  0.11653657  0.24309301  0.66287133  1
  O  O135  1  0.12237561  0.25519057  0.91826083  1
  O  O136  1  0.12062416  0.50637806  0.16518630  1
  O  O137  1  0.12064742  0.49816092  0.40008199  1
  O  O138  1  0.11876311  0.50151544  0.66079531  1
  O  O139  1  0.12212379  0.49669802  0.91929746  1
  O  O140  1  0.12091016  0.75347278  0.16335104  1
  O  O141  1  0.12350897  0.75683439  0.40938269  1
  O  O142  1  0.11796039  0.75803560  0.65966951  1
  O  O143  1  0.12185981  0.74565823  0.91438974  1
  O  O144  1  0.37509665  0.00014086  0.16504707  1
  O  O145  1  0.37444296  0.00373803  0.41436461  1
  O  O146  1  0.37079563  0.00031324  0.67062062  1
  O  O147  1  0.37705901  -0.00069675  0.91514703  1
  O  O148  1  0.37694157  0.24716856  0.16613612  1
  O  O149  1  0.37314985  0.23858508  0.41219958  1
  O  O150  1  0.37137829  0.24723341  0.66018191  1
  O  O151  1  0.37518570  0.24698040  0.91416796  1
  O  O152  1  0.37593957  0.49967931  0.16559675  1
  O  O153  1  0.37688653  0.50037396  0.40919621  1
  O  O154  1  0.37159505  0.50053191  0.65151335  1
  O  O155  1  0.37357223  0.50050424  0.91817722  1
  O  O156  1  0.37438373  0.75204341  0.16868389  1
  O  O157  1  0.37812121  0.75831358  0.40563400  1
  O  O158  1  0.37200942  0.75461366  0.66050042  1
  O  O159  1  0.37520363  0.75212959  0.91610270  1
  O  O160  1  0.62807400  0.00712757  0.15725504  1
  O  O161  1  0.62354550  0.00742478  0.41502672  1
  O  O162  1  0.63401986  -0.00091786  0.66231831  1
  O  O163  1  0.62645751  -0.00195366  0.91799177  1
  O  O164  1  0.62783662  0.24850185  0.16578562  1
  O  O165  1  0.62474366  0.24081232  0.41401913  1
  O  O166  1  0.63313837  0.25370165  0.66318677  1
  O  O167  1  0.62841516  0.25696249  0.91465080  1
  O  O168  1  0.62697620  0.50107617  0.16840946  1
  O  O169  1  0.62653567  0.50540909  0.41092130  1
  O  O170  1  0.63204845  0.50046364  0.66166433  1
  O  O171  1  0.62769026  0.49768789  0.91677961  1
  O  O172  1  0.62771422  0.74187161  0.16175386  1
  O  O173  1  0.62742604  0.74676565  0.41110875  1
  O  O174  1  0.63173258  0.74972324  0.66239246  1
  O  O175  1  0.62784939  0.74411856  0.91516632  1
  O  O176  1  0.87329559  0.00273818  0.16364303  1
  O  O177  1  0.87430405  -0.00179209  0.41138561  1
  O  O178  1  0.87707541  0.00041958  0.66335769  1
  O  O179  1  0.87348216  0.00089721  0.91709613  1
  O  O180  1  0.87145652  0.25396257  0.16872352  1
  O  O181  1  0.87372840  0.25274215  0.40991403  1
  O  O182  1  0.88037285  0.25121737  0.65876158  1
  O  O183  1  0.87384190  0.24943659  0.92001440  1
  O  O184  1  0.87201884  0.49344332  0.16893781  1
  O  O185  1  0.87528167  0.49140330  0.40775590  1
  O  O186  1  0.88027515  0.50434312  0.65855472  1
  O  O187  1  0.87564754  0.49520970  0.91944268  1
  O  O188  1  0.87286647  0.74808386  0.16812735  1
  O  O189  1  0.87310986  0.75802609  0.40312453  1
  O  O190  1  0.87869276  0.74927843  0.66239598  1
  O  O191  1  0.87489793  0.75226942  0.91642316  1
  O  O192  1  0.00065231  0.12401445  0.16524385  1
  O  O193  1  0.00628150  0.12295430  0.40715383  1
  O  O194  1  -0.00181840  0.12380498  0.66982597  1
  O  O195  1  -0.00943201  0.12564831  0.92144564  1
  O  O196  1  -0.00997010  0.37316156  0.16817151  1
  O  O197  1  -0.00553278  0.36904255  0.40583640  1
  O  O198  1  -0.00714982  0.37604070  0.66897636  1
  O  O199  1  0.00072820  0.37431071  0.92025191  1
  O  O200  1  0.00119552  0.62659788  0.16913066  1
  O  O201  1  -0.00492489  0.62722570  0.40710885  1
  O  O202  1  -0.00426782  0.62895187  0.66379174  1
  O  O203  1  0.00573126  0.62238477  0.92001848  1
  O  O204  1  0.00333188  0.87641809  0.16412357  1
  O  O205  1  -0.00746542  0.88002976  0.40758944  1
  O  O206  1  -0.00153295  0.87702791  0.66936727  1
  O  O207  1  -0.00618110  0.87496083  0.91825366  1
  O  O208  1  0.24140948  0.12069418  0.15739406  1
  O  O209  1  0.24783905  0.12179055  0.40899310  1
  O  O210  1  0.23849894  0.12123505  0.66219742  1
  O  O211  1  0.25654101  0.12409279  0.91586308  1
  O  O212  1  0.25026453  0.37322252  0.16393102  1
  O  O213  1  0.24645858  0.36960872  0.40833940  1
  O  O214  1  0.24511019  0.37182383  0.65833136  1
  O  O215  1  0.24291918  0.37510051  0.91551593  1
  O  O216  1  0.24214025  0.62873019  0.16480214  1
  O  O217  1  0.24956454  0.62957357  0.40667827  1
  O  O218  1  0.24646212  0.62986209  0.65671385  1
  O  O219  1  0.23988904  0.62248628  0.91806182  1
  O  O220  1  0.24085737  0.87749696  0.16090519  1
  O  O221  1  0.25753717  0.88027513  0.40861938  1
  O  O222  1  0.23807353  0.88129645  0.66062662  1
  O  O223  1  0.25626731  0.87548038  0.91457841  1
  O  O224  1  0.51007095  0.12603198  0.16125462  1
  O  O225  1  0.49731525  0.12349324  0.41159150  1
  O  O226  1  0.50186335  0.12445887  0.65971101  1
  O  O227  1  0.49620161  0.12480551  0.91381872  1
  O  O228  1  0.50556406  0.37417961  0.16605557  1
  O  O229  1  0.50120058  0.36951569  0.41489949  1
  O  O230  1  0.50031076  0.37438770  0.65270532  1
  O  O231  1  0.50771399  0.37661194  0.91139742  1
  O  O232  1  0.50910287  0.62322961  0.16529402  1
  O  O233  1  0.50701325  0.62805219  0.41047102  1
  O  O234  1  0.49986774  0.62663668  0.65586030  1
  O  O235  1  0.50834605  0.62285879  0.91450052  1
  O  O236  1  0.50330292  0.87461975  0.16176392  1
  O  O237  1  0.49332000  0.88124045  0.41347482  1
  O  O238  1  0.50321856  0.87768412  0.65808415  1
  O  O239  1  0.49651983  0.87384090  0.91697390  1
  O  O240  1  0.74480823  0.12777096  0.16655526  1
  O  O241  1  0.74553845  0.12403480  0.40708461  1
  O  O242  1  0.76130128  0.12679180  0.66582623  1
  O  O243  1  0.75681378  0.12645428  0.92168347  1
  O  O244  1  0.75096202  0.37432834  0.17006307  1
  O  O245  1  0.75621285  0.37288646  0.41166028  1
  O  O246  1  0.76547514  0.37872311  0.66225552  1
  O  O247  1  0.74882259  0.37588963  0.91817716  1
  O  O248  1  0.74465742  0.62141062  0.16894708  1
  O  O249  1  0.74758574  0.62477085  0.40998647  1
  O  O250  1  0.76124924  0.62576937  0.66210590  1
  O  O251  1  0.74528147  0.62164493  0.91798414  1
  O  O252  1  0.74876173  0.87503169  0.16707179  1
  O  O253  1  0.75654225  0.87889840  0.41131732  1
  O  O254  1  0.75946818  0.87343778  0.66321366  1
  O  O255  1  0.75379315  0.87421138  0.91844457  1
  O  O256  1  0.12193390  0.12602042  0.04531215  1
  O  O257  1  0.12853818  0.12049421  0.29295495  1
  O  O258  1  0.12018701  0.12239453  0.55101967  1
  O  O259  1  0.11450713  0.12218189  0.79202997  1
  O  O260  1  0.11478876  0.37541458  0.04713478  1
  O  O261  1  0.12310586  0.36533052  0.27423871  1
  O  O262  1  0.11568266  0.36797385  0.53180464  1
  O  O263  1  0.12155214  0.37568556  0.80373221  1
  O  O264  1  0.12200158  0.62505237  0.05527697  1
  O  O265  1  0.11977143  0.63406488  0.27980571  1
  O  O266  1  0.11733023  0.62986964  0.52774344  1
  O  O267  1  0.12183895  0.62472140  0.80141544  1
  O  O268  1  0.12057506  0.87075963  0.04970034  1
  O  O269  1  0.12322155  0.88084389  0.28131525  1
  O  O270  1  0.11823762  0.88028764  0.54980133  1
  O  O271  1  0.11937972  0.88137007  0.78889965  1
  O  O272  1  0.37902696  0.12739167  0.03502351  1
  O  O273  1  0.37737721  0.12112419  0.29880499  1
  O  O274  1  0.37147743  0.11367576  0.53302856  1
  O  O275  1  0.37475274  0.12550636  0.80166728  1
  O  O276  1  0.37723662  0.36856720  0.03462573  1
  O  O277  1  0.37541666  0.37026905  0.28858459  1
  O  O278  1  0.36998735  0.36779011  0.52365183  1
  O  O279  1  0.36897745  0.37386394  0.78688375  1
  O  O280  1  0.37593372  0.63302157  0.04072411  1
  O  O281  1  0.37464077  0.62538751  0.28270818  1
  O  O282  1  0.37797933  0.63481494  0.52374130  1
  O  O283  1  0.36918182  0.62766127  0.78755782  1
  O  O284  1  0.37497297  0.87048063  0.03448520  1
  O  O285  1  0.37858749  0.88131620  0.29654058  1
  O  O286  1  0.37207598  0.88638173  0.53226903  1
  O  O287  1  0.37574039  0.87379247  0.80294575  1
  O  O288  1  0.62812414  0.13136342  0.04642332  1
  O  O289  1  0.62241851  0.12374642  0.29834928  1
  O  O290  1  0.63674205  0.12562973  0.53485502  1
  O  O291  1  0.63990592  0.12607047  0.78931259  1
  O  O292  1  0.62693183  0.37661204  0.05270610  1
  O  O293  1  0.62758279  0.36840518  0.28960682  1
  O  O294  1  0.63601873  0.37211362  0.52768118  1
  O  O295  1  0.62960160  0.37565776  0.79943851  1
  O  O296  1  0.62706973  0.61918105  0.05019007  1
  O  O297  1  0.62582242  0.62545120  0.29771576  1
  O  O298  1  0.63234521  0.62883899  0.52987298  1
  O  O299  1  0.62884182  0.62461885  0.80013344  1
  O  O300  1  0.63476794  0.87092502  0.03182633  1
  O  O301  1  0.62745621  0.88075777  0.29162012  1
  O  O302  1  0.63585403  0.87511014  0.52717917  1
  O  O303  1  0.62686253  0.87275499  0.80510675  1
  O  O304  1  0.87273015  0.13066975  0.05540529  1
  O  O305  1  0.87780243  0.12702742  0.28051717  1
  O  O306  1  0.88013288  0.12191084  0.54493737  1
  O  O307  1  0.87522471  0.12721640  0.80470376  1
  O  O308  1  0.87335962  0.37487647  0.05401973  1
  O  O309  1  0.87102507  0.37209037  0.29312133  1
  O  O310  1  0.88247888  0.37057509  0.54571459  1
  O  O311  1  0.87580977  0.37338292  0.80039909  1
  O  O312  1  0.87436485  0.62185462  0.05943859  1
  O  O313  1  0.87306115  0.61590144  0.27835062  1
  O  O314  1  0.87835248  0.62498738  0.54602811  1
  O  O315  1  0.87600795  0.62235633  0.78977292  1
  O  O316  1  0.87205667  0.87161441  0.03637120  1
  O  O317  1  0.87105976  0.88127267  0.29210696  1
  O  O318  1  0.87980126  0.87571875  0.54500946  1
  O  O319  1  0.87368224  0.87405129  0.80549860  1
