# generated using pymatgen
data_VFe(PbO3)2
_symmetry_space_group_name_H-M   'P 1'
_cell_length_a   15.37356422
_cell_length_b   15.37380973
_cell_length_c   18.54435946
_cell_angle_alpha   90.03174431
_cell_angle_beta   89.99793003
_cell_angle_gamma   89.98987195
_symmetry_Int_Tables_number   1
_chemical_formula_structural   VFe(PbO3)2
_chemical_formula_sum   'V32 Fe32 Pb64 O192'
_cell_volume   4382.96327227
_cell_formula_units_Z   32
loop_
 _symmetry_equiv_pos_site_id
 _symmetry_equiv_pos_as_xyz
  1  'x, y, z'
loop_
 _atom_site_type_symbol
 _atom_site_label
 _atom_site_symmetry_multiplicity
 _atom_site_fract_x
 _atom_site_fract_y
 _atom_site_fract_z
 _atom_site_occupancy
  V  V0  1  0.62204636  0.62430442  0.88606061  1
  V  V1  1  0.12487788  0.87309012  0.39354861  1
  V  V2  1  0.36880328  0.62625265  0.38873786  1
  V  V3  1  0.62056173  0.62655516  0.39105667  1
  V  V4  1  0.37592233  0.37140727  0.89009854  1
  V  V5  1  0.37572755  0.87372159  0.39370892  1
  V  V6  1  0.87277658  0.62760048  0.64319972  1
  V  V7  1  0.37711518  0.62585538  0.63473503  1
  V  V8  1  0.12383966  0.87533115  0.13978565  1
  V  V9  1  0.12523211  0.12346672  0.14325296  1
  V  V10  1  0.37764032  0.87950634  0.88998807  1
  V  V11  1  0.87259902  0.12458609  0.88764438  1
  V  V12  1  0.87488136  0.12476809  0.14189948  1
  V  V13  1  0.61871188  0.12631927  0.88936200  1
  V  V14  1  0.62539163  0.62616327  0.13721634  1
  V  V15  1  0.87840380  0.87582801  0.14132240  1
  V  V16  1  0.12398166  0.37587424  0.39222181  1
  V  V17  1  0.37724809  0.12413240  0.14181297  1
  V  V18  1  0.12519867  0.87491634  0.88644335  1
  V  V19  1  0.87395461  0.62399105  0.39080962  1
  V  V20  1  0.62896338  0.12544940  0.63325702  1
  V  V21  1  0.12422940  0.37380703  0.88819140  1
  V  V22  1  0.12686937  0.12541594  0.88695075  1
  V  V23  1  0.87639150  0.37732301  0.38797971  1
  V  V24  1  0.12423462  0.62300394  0.13779797  1
  V  V25  1  0.87534752  0.12689316  0.39356119  1
  V  V26  1  0.37529429  0.12825545  0.38838328  1
  V  V27  1  0.12734967  0.87321203  0.63621606  1
  V  V28  1  0.37761062  0.12506049  0.63359702  1
  V  V29  1  0.87585819  0.87285560  0.39306929  1
  V  V30  1  0.87490613  0.37476433  0.63928434  1
  V  V31  1  0.62611767  0.37511173  0.13977560  1
  Fe  Fe32  1  0.62889128  0.37516014  0.38828683  1
  Fe  Fe33  1  0.12783721  0.62396764  0.88057500  1
  Fe  Fe34  1  0.62562938  0.12469983  0.14208068  1
  Fe  Fe35  1  0.62391740  0.37606955  0.63619662  1
  Fe  Fe36  1  0.62312060  0.37525065  0.88403416  1
  Fe  Fe37  1  0.62478002  0.12431212  0.38255932  1
  Fe  Fe38  1  0.87593018  0.62494996  0.88148199  1
  Fe  Fe39  1  0.37553370  0.37643482  0.62453080  1
  Fe  Fe40  1  0.87328537  0.37158324  0.88770896  1
  Fe  Fe41  1  0.37130448  0.12448103  0.88368925  1
  Fe  Fe42  1  0.87547472  0.87844456  0.87940312  1
  Fe  Fe43  1  0.62591001  0.87490142  0.88804314  1
  Fe  Fe44  1  0.62825527  0.87479898  0.38966445  1
  Fe  Fe45  1  0.37403235  0.37888373  0.39543138  1
  Fe  Fe46  1  0.37387799  0.37367748  0.13857769  1
  Fe  Fe47  1  0.12416010  0.37362213  0.13410471  1
  Fe  Fe48  1  0.62292802  0.87461369  0.63315538  1
  Fe  Fe49  1  0.87647657  0.87623324  0.63977556  1
  Fe  Fe50  1  0.87359183  0.12663466  0.63055842  1
  Fe  Fe51  1  0.12577820  0.12175194  0.39796773  1
  Fe  Fe52  1  0.37575922  0.62552921  0.13412386  1
  Fe  Fe53  1  0.37336272  0.87357388  0.62987042  1
  Fe  Fe54  1  0.87722029  0.37426810  0.13376231  1
  Fe  Fe55  1  0.87372291  0.62635966  0.13406125  1
  Fe  Fe56  1  0.37119967  0.87542713  0.13617812  1
  Fe  Fe57  1  0.62649620  0.62470700  0.63444133  1
  Fe  Fe58  1  0.62532129  0.87604446  0.13430990  1
  Fe  Fe59  1  0.12483307  0.12494193  0.62611550  1
  Fe  Fe60  1  0.12429945  0.62348079  0.64042785  1
  Fe  Fe61  1  0.12693036  0.37616928  0.63391696  1
  Fe  Fe62  1  0.37320914  0.62490462  0.88835071  1
  Fe  Fe63  1  0.12086929  0.62708310  0.38957816  1
  Pb  Pb64  1  0.00194889  0.00277094  -0.00473472  1
  Pb  Pb65  1  0.00342809  0.00592222  0.25827532  1
  Pb  Pb66  1  -0.01110976  -0.00035108  0.50828827  1
  Pb  Pb67  1  -0.00298322  0.00066007  0.74113856  1
  Pb  Pb68  1  0.00215217  0.25776328  0.00205083  1
  Pb  Pb69  1  0.00452321  0.24979253  0.25143151  1
  Pb  Pb70  1  0.00072027  0.24486649  0.50313055  1
  Pb  Pb71  1  0.00055154  0.24908564  0.74199341  1
  Pb  Pb72  1  -0.00949509  0.50168208  -0.00246989  1
  Pb  Pb73  1  -0.00027054  0.50105313  0.24522991  1
  Pb  Pb74  1  0.00692415  0.50259371  0.50597058  1
  Pb  Pb75  1  -0.00165088  0.50273573  0.75205989  1
  Pb  Pb76  1  -0.00631949  0.74108831  -0.00629127  1
  Pb  Pb77  1  0.00516834  0.74341418  0.25281955  1
  Pb  Pb78  1  -0.00574571  0.75256665  0.50627442  1
  Pb  Pb79  1  -0.00023254  0.74204324  0.75218783  1
  Pb  Pb80  1  0.25512003  -0.00425197  0.00106184  1
  Pb  Pb81  1  0.24536014  0.00633549  0.25563606  1
  Pb  Pb82  1  0.25463085  -0.00253918  0.50232431  1
  Pb  Pb83  1  0.25544536  0.00660412  0.74434712  1
  Pb  Pb84  1  0.24742672  0.25726673  0.00368821  1
  Pb  Pb85  1  0.25230395  0.25314718  0.25316353  1
  Pb  Pb86  1  0.24261352  0.25289432  0.50202152  1
  Pb  Pb87  1  0.25130846  0.25011766  0.73924409  1
  Pb  Pb88  1  0.25131293  0.49765159  -0.00100564  1
  Pb  Pb89  1  0.25790013  0.49185352  0.25136007  1
  Pb  Pb90  1  0.23654179  0.50077867  0.50709032  1
  Pb  Pb91  1  0.25168774  0.50375865  0.74534406  1
  Pb  Pb92  1  0.25466901  0.74942690  -0.00064926  1
  Pb  Pb93  1  0.24670431  0.74484186  0.24833614  1
  Pb  Pb94  1  0.25101141  0.74868698  0.50439054  1
  Pb  Pb95  1  0.25423956  0.73944341  0.75125506  1
  Pb  Pb96  1  0.51138010  0.00112847  0.00737367  1
  Pb  Pb97  1  0.50694392  -0.00455285  0.25004476  1
  Pb  Pb98  1  0.50486512  -0.00639953  0.49646051  1
  Pb  Pb99  1  0.49903322  -0.00055892  0.74508419  1
  Pb  Pb100  1  0.49465179  0.25158413  0.00228180  1
  Pb  Pb101  1  0.50650677  0.25482812  0.25667149  1
  Pb  Pb102  1  0.50444806  0.25976385  0.49725168  1
  Pb  Pb103  1  0.50003269  0.25383941  0.74476051  1
  Pb  Pb104  1  0.49185959  0.50272991  0.00046553  1
  Pb  Pb105  1  0.49552161  0.49107908  0.25282786  1
  Pb  Pb106  1  0.50287065  0.49164285  0.50198681  1
  Pb  Pb107  1  0.50199098  0.49815846  0.74378085  1
  Pb  Pb108  1  0.49237886  0.75193589  0.00070201  1
  Pb  Pb109  1  0.49931809  0.75600302  0.24553750  1
  Pb  Pb110  1  0.50677868  0.75346072  0.50351201  1
  Pb  Pb111  1  0.50290244  0.75452809  0.74560307  1
  Pb  Pb112  1  0.74197257  -0.00104613  0.00264710  1
  Pb  Pb113  1  0.74247619  -0.00233053  0.25374371  1
  Pb  Pb114  1  0.75295470  -0.00342077  0.50075666  1
  Pb  Pb115  1  0.75051491  -0.00809324  0.74707176  1
  Pb  Pb116  1  0.75095622  0.25175551  -0.00017707  1
  Pb  Pb117  1  0.74022980  0.25101422  0.25506057  1
  Pb  Pb118  1  0.74705997  0.25082276  0.49851811  1
  Pb  Pb119  1  0.74935893  0.26225419  0.75332883  1
  Pb  Pb120  1  0.75596559  0.49839028  -0.00545647  1
  Pb  Pb121  1  0.74965876  0.49683805  0.24645485  1
  Pb  Pb122  1  0.74405489  0.50433276  0.50340388  1
  Pb  Pb123  1  0.75350934  0.49700927  0.75205105  1
  Pb  Pb124  1  0.75275522  0.75190144  -0.00911829  1
  Pb  Pb125  1  0.74491138  0.75650478  0.25037464  1
  Pb  Pb126  1  0.74402731  0.75114794  0.50747272  1
  Pb  Pb127  1  0.74449560  0.76134864  0.75044297  1
  O  O128  1  0.12284871  -0.00042074  0.17179565  1
  O  O129  1  0.12513836  -0.01094389  0.41819447  1
  O  O130  1  0.12691053  -0.00422825  0.65577219  1
  O  O131  1  0.12659130  -0.00064344  0.91497843  1
  O  O132  1  0.12349349  0.24379366  0.16748145  1
  O  O133  1  0.12388051  0.25642356  0.41377231  1
  O  O134  1  0.12644551  0.24971312  0.66071356  1
  O  O135  1  0.12701388  0.25061885  0.91523234  1
  O  O136  1  0.12190165  0.50685740  0.15778991  1
  O  O137  1  0.12087191  0.49761081  0.41520876  1
  O  O138  1  0.12487907  0.49865697  0.66699534  1
  O  O139  1  0.12945335  0.49020627  0.90672509  1
  O  O140  1  0.12115310  0.75056957  0.16549815  1
  O  O141  1  0.12155956  0.75549265  0.41977973  1
  O  O142  1  0.12473056  0.75457759  0.66161835  1
  O  O143  1  0.12724146  0.75936639  0.90882291  1
  O  O144  1  0.37160335  0.00673172  0.16672907  1
  O  O145  1  0.37287354  -0.00183949  0.41479686  1
  O  O146  1  0.37419514  0.00413774  0.65922827  1
  O  O147  1  0.37080672  -0.00333652  0.91485569  1
  O  O148  1  0.37226363  0.24276822  0.16870816  1
  O  O149  1  0.37351394  0.24428368  0.40836611  1
  O  O150  1  0.37642125  0.24332780  0.65453689  1
  O  O151  1  0.37456121  0.25239620  0.91519851  1
  O  O152  1  0.37524736  0.50184388  0.16718700  1
  O  O153  1  0.37828323  0.51326370  0.41340172  1
  O  O154  1  0.37578481  0.50646331  0.65587997  1
  O  O155  1  0.37342780  0.49108628  0.91359368  1
  O  O156  1  0.37436226  0.74849936  0.16683234  1
  O  O157  1  0.37575939  0.74443990  0.41759507  1
  O  O158  1  0.37397941  0.74576622  0.65970945  1
  O  O159  1  0.37222404  0.75908813  0.91356420  1
  O  O160  1  0.62699959  -0.00062273  0.16922132  1
  O  O161  1  0.62658073  0.00066686  0.41254430  1
  O  O162  1  0.62105924  0.00853864  0.65901410  1
  O  O163  1  0.62578697  0.00806077  0.91519049  1
  O  O164  1  0.62511745  0.25480316  0.16426416  1
  O  O165  1  0.62740974  0.24767658  0.41393402  1
  O  O166  1  0.61989207  0.24186302  0.66027390  1
  O  O167  1  0.62494289  0.24217827  0.91569910  1
  O  O168  1  0.62729672  0.49788498  0.16231329  1
  O  O169  1  0.63057382  0.50840302  0.41270577  1
  O  O170  1  0.62461948  0.50127618  0.66505371  1
  O  O171  1  0.62172703  0.50520739  0.91134579  1
  O  O172  1  0.62738002  0.74603583  0.15996068  1
  O  O173  1  0.63196920  0.74421529  0.41549704  1
  O  O174  1  0.62448264  0.74844816  0.66490704  1
  O  O175  1  0.62195714  0.74378615  0.91279753  1
  O  O176  1  0.87795287  -0.00033040  0.16966536  1
  O  O177  1  0.87779698  0.00063335  0.41494987  1
  O  O178  1  0.87495283  0.00327599  0.66277664  1
  O  O179  1  0.87874852  0.00814274  0.91300459  1
  O  O180  1  0.87932747  0.24132272  0.16301956  1
  O  O181  1  0.87636204  0.24906989  0.41275650  1
  O  O182  1  0.87303504  0.25523418  0.66064194  1
  O  O183  1  0.87712855  0.24082337  0.91641134  1
  O  O184  1  0.87416631  0.50103853  0.16430119  1
  O  O185  1  0.87524630  0.50400956  0.41356471  1
  O  O186  1  0.87381226  0.49626179  0.66476415  1
  O  O187  1  0.87541508  0.49866738  0.91207678  1
  O  O188  1  0.87655958  0.75761749  0.16267132  1
  O  O189  1  0.87641465  0.74653211  0.41759011  1
  O  O190  1  0.87762389  0.74482743  0.65961119  1
  O  O191  1  0.87660690  0.75240040  0.90876621  1
  O  O192  1  -0.00185060  0.12061538  0.17108120  1
  O  O193  1  -0.00556612  0.12494990  0.41613971  1
  O  O194  1  0.00052892  0.12698224  0.65779690  1
  O  O195  1  0.00141169  0.12509231  0.91409243  1
  O  O196  1  0.00106907  0.37322974  0.16799691  1
  O  O197  1  -0.00054523  0.37587531  0.41694948  1
  O  O198  1  -0.00653438  0.37499947  0.66177450  1
  O  O199  1  0.00667999  0.36957442  0.90819065  1
  O  O200  1  0.00366307  0.62879395  0.16423639  1
  O  O201  1  -0.00830991  0.62576599  0.41715167  1
  O  O202  1  -0.00629045  0.62137325  0.66508082  1
  O  O203  1  0.00490594  0.62451455  0.91157593  1
  O  O204  1  -0.00185058  0.87756882  0.17006463  1
  O  O205  1  0.00074979  0.87332469  0.41835836  1
  O  O206  1  0.00882187  0.87535004  0.66330478  1
  O  O207  1  0.00697728  0.88028123  0.90843211  1
  O  O208  1  0.24999616  0.12331959  0.16863394  1
  O  O209  1  0.25772608  0.12181932  0.41681390  1
  O  O210  1  0.25566024  0.12402648  0.65488043  1
  O  O211  1  0.24541161  0.12518239  0.91613715  1
  O  O212  1  0.24729052  0.37351517  0.16874462  1
  O  O213  1  0.24208820  0.37858455  0.41213299  1
  O  O214  1  0.25514988  0.37456007  0.65966353  1
  O  O215  1  0.25149147  0.37026922  0.91394603  1
  O  O216  1  0.24150566  0.62891174  0.15935958  1
  O  O217  1  0.25244806  0.62834225  0.41068868  1
  O  O218  1  0.25624426  0.62583181  0.66111954  1
  O  O219  1  0.24835371  0.62478914  0.91761688  1
  O  O220  1  0.24287781  0.87589856  0.16718928  1
  O  O221  1  0.24567878  0.87018985  0.41634087  1
  O  O222  1  0.24540078  0.87480624  0.66078415  1
  O  O223  1  0.24731142  0.87855905  0.91521690  1
  O  O224  1  0.49307906  0.12482725  0.16470020  1
  O  O225  1  0.49253005  0.12118528  0.40989542  1
  O  O226  1  0.49761329  0.12349708  0.65951533  1
  O  O227  1  0.50219630  0.12443184  0.91065437  1
  O  O228  1  0.50566877  0.37510648  0.16566580  1
  O  O229  1  0.50249366  0.37884731  0.41245320  1
  O  O230  1  0.49644089  0.37382283  0.66239743  1
  O  O231  1  0.49504451  0.37140674  0.91374156  1
  O  O232  1  0.51015373  0.62326277  0.16443055  1
  O  O233  1  0.50469415  0.62938292  0.40860504  1
  O  O234  1  0.49423356  0.62652135  0.65881840  1
  O  O235  1  0.50235745  0.62510986  0.91452183  1
  O  O236  1  0.49866330  0.87640081  0.16471495  1
  O  O237  1  0.49838935  0.86998529  0.41299385  1
  O  O238  1  0.49708542  0.87648670  0.66197914  1
  O  O239  1  0.49396870  0.87806532  0.90924901  1
  O  O240  1  0.75898806  0.12308320  0.16393370  1
  O  O241  1  0.75702390  0.12385203  0.41276885  1
  O  O242  1  0.74293107  0.12631567  0.65496223  1
  O  O243  1  0.75368597  0.12505925  0.91065318  1
  O  O244  1  0.74617046  0.37310019  0.16189771  1
  O  O245  1  0.75766006  0.37635961  0.41574952  1
  O  O246  1  0.75350255  0.37441946  0.66297718  1
  O  O247  1  0.74634673  0.37071897  0.91713185  1
  O  O248  1  0.74355723  0.62475157  0.16405937  1
  O  O249  1  0.75630837  0.62594883  0.41663719  1
  O  O250  1  0.75673355  0.62250890  0.66469638  1
  O  O251  1  0.74230151  0.62499930  0.90816922  1
  O  O252  1  0.75878495  0.87748842  0.16367672  1
  O  O253  1  0.75725127  0.87410119  0.41635636  1
  O  O254  1  0.74840334  0.87611354  0.66149705  1
  O  O255  1  0.75157434  0.87848211  0.91390209  1
  O  O256  1  0.12298637  0.12082701  0.05251543  1
  O  O257  1  0.12484743  0.11709976  0.29733311  1
  O  O258  1  0.12717160  0.13181696  0.52480523  1
  O  O259  1  0.12701504  0.12554018  0.79611030  1
  O  O260  1  0.12645129  0.36878475  0.03431997  1
  O  O261  1  0.12029484  0.37619082  0.30100905  1
  O  O262  1  0.12727018  0.38120470  0.53325103  1
  O  O263  1  0.12870870  0.36813824  0.79756575  1
  O  O264  1  0.12139273  0.62773624  0.04705305  1
  O  O265  1  0.11930957  0.63242590  0.29038937  1
  O  O266  1  0.12417704  0.61565793  0.53859090  1
  O  O267  1  0.12805903  0.62878592  0.77978618  1
  O  O268  1  0.12170243  0.87681396  0.04925264  1
  O  O269  1  0.12296417  0.87196680  0.30264945  1
  O  O270  1  0.12626652  0.87039790  0.54497343  1
  O  O271  1  0.12914475  0.87752134  0.79618451  1
  O  O272  1  0.37496762  0.12582798  0.05066494  1
  O  O273  1  0.37188971  0.12318921  0.29731015  1
  O  O274  1  0.37935937  0.12253442  0.54291171  1
  O  O275  1  0.37032383  0.11996538  0.78508253  1
  O  O276  1  0.37468368  0.36985196  0.03880032  1
  O  O277  1  0.37195632  0.38365779  0.29330601  1
  O  O278  1  0.38079923  0.37717457  0.52290351  1
  O  O279  1  0.37477154  0.37093698  0.79944709  1
  O  O280  1  0.38040727  0.62643397  0.03362723  1
  O  O281  1  0.37155476  0.62812582  0.29743475  1
  O  O282  1  0.37479355  0.62807913  0.54360678  1
  O  O283  1  0.36844663  0.62682287  0.78912134  1
  O  O284  1  0.36918437  0.87514398  0.03660149  1
  O  O285  1  0.37156813  0.87207484  0.30274942  1
  O  O286  1  0.37130216  0.87286802  0.52993650  1
  O  O287  1  0.37187741  0.87992150  0.79902630  1
  O  O288  1  0.62343220  0.11648375  0.04205993  1
  O  O289  1  0.62742086  0.13092156  0.28139346  1
  O  O290  1  0.62545116  0.12591163  0.54196273  1
  O  O291  1  0.62321629  0.12582242  0.79869567  1
  O  O292  1  0.62323963  0.37421380  0.04902674  1
  O  O293  1  0.62888821  0.36987208  0.28736862  1
  O  O294  1  0.62243263  0.37579858  0.53487991  1
  O  O295  1  0.62540157  0.36783935  0.78436992  1
  O  O296  1  0.62460085  0.62392884  0.04689969  1
  O  O297  1  0.62782074  0.62782407  0.30034015  1
  O  O298  1  0.63305069  0.62767573  0.53409761  1
  O  O299  1  0.61888175  0.62513336  0.79517622  1
  O  O300  1  0.62460374  0.88613888  0.03407822  1
  O  O301  1  0.63290754  0.87137839  0.28860216  1
  O  O302  1  0.62305476  0.86937521  0.53146880  1
  O  O303  1  0.62850619  0.87475513  0.78778978  1
  O  O304  1  0.87940249  0.12063270  0.05132983  1
  O  O305  1  0.87657318  0.12490609  0.30243392  1
  O  O306  1  0.87582424  0.12368562  0.53071754  1
  O  O307  1  0.87437081  0.12638765  0.79695074  1
  O  O308  1  0.87936609  0.37113293  0.03345773  1
  O  O309  1  0.87671841  0.37636572  0.29702270  1
  O  O310  1  0.87349111  0.37697749  0.54845356  1
  O  O311  1  0.86652928  0.36838647  0.78797037  1
  O  O312  1  0.88041153  0.62591796  0.03459424  1
  O  O313  1  0.87348157  0.62666648  0.29980635  1
  O  O314  1  0.87390750  0.62148540  0.55179052  1
  O  O315  1  0.88117100  0.62197418  0.78174680  1
  O  O316  1  0.88174096  0.88048178  0.05094883  1
  O  O317  1  0.87667041  0.87192217  0.30211115  1
  O  O318  1  0.88294976  0.87829472  0.53827744  1
  O  O319  1  0.87184706  0.88205006  0.77929221  1
