# generated using pymatgen
data_VFe(PbO3)2
_symmetry_space_group_name_H-M   'P 1'
_cell_length_a   15.38705196
_cell_length_b   15.38249192
_cell_length_c   18.53275365
_cell_angle_alpha   90.05006533
_cell_angle_beta   90.00604916
_cell_angle_gamma   89.99520689
_symmetry_Int_Tables_number   1
_chemical_formula_structural   VFe(PbO3)2
_chemical_formula_sum   'V32 Fe32 Pb64 O192'
_cell_volume   4386.53803350
_cell_formula_units_Z   32
loop_
 _symmetry_equiv_pos_site_id
 _symmetry_equiv_pos_as_xyz
  1  'x, y, z'
loop_
 _atom_site_type_symbol
 _atom_site_label
 _atom_site_symmetry_multiplicity
 _atom_site_fract_x
 _atom_site_fract_y
 _atom_site_fract_z
 _atom_site_occupancy
  V  V0  1  0.87640592  0.37603477  0.39750636  1
  V  V1  1  0.87472846  0.62377874  0.13967877  1
  V  V2  1  0.87605725  0.12504838  0.88663454  1
  V  V3  1  0.87694686  0.87606230  0.64085968  1
  V  V4  1  0.87479834  0.37430318  0.13799713  1
  V  V5  1  0.12349800  0.38630280  0.64290476  1
  V  V6  1  0.12617348  0.62461046  0.39367990  1
  V  V7  1  0.87366472  0.62507154  0.38812658  1
  V  V8  1  0.62657981  0.12655629  0.88486951  1
  V  V9  1  0.12653385  0.87400988  0.88854014  1
  V  V10  1  0.62460663  0.62555442  0.39060092  1
  V  V11  1  0.36677396  0.37503414  0.13896540  1
  V  V12  1  0.62528521  0.62424156  0.88624341  1
  V  V13  1  0.12578702  0.62131597  0.14214157  1
  V  V14  1  0.12701041  0.87350838  0.14439978  1
  V  V15  1  0.87536257  0.62681513  0.64191480  1
  V  V16  1  0.87789121  0.12382098  0.39289454  1
  V  V17  1  0.62506062  0.87550158  0.38863423  1
  V  V18  1  0.87607689  0.87539670  0.14226925  1
  V  V19  1  0.12357958  0.62461562  0.88442155  1
  V  V20  1  0.37522189  0.12585059  0.39358295  1
  V  V21  1  0.12713851  0.87365747  0.63622143  1
  V  V22  1  0.12535749  0.37122479  0.39247365  1
  V  V23  1  0.37545743  0.87526280  0.13753162  1
  V  V24  1  0.62048045  0.37590082  0.14219600  1
  V  V25  1  0.62541101  0.12509439  0.39729420  1
  V  V26  1  0.62409274  0.37589713  0.88492112  1
  V  V27  1  0.12141808  0.12908463  0.64254468  1
  V  V28  1  0.62627588  0.87256142  0.64196514  1
  V  V29  1  0.37646971  0.87590074  0.39214848  1
  V  V30  1  0.62520598  0.62766918  0.63651677  1
  V  V31  1  0.87360431  0.12778399  0.14058164  1
  Fe  Fe32  1  0.37436355  0.62349754  0.13629496  1
  Fe  Fe33  1  0.37601056  0.12493005  0.87619940  1
  Fe  Fe34  1  0.37668876  0.37657645  0.87678828  1
  Fe  Fe35  1  0.62470004  0.12694777  0.13640358  1
  Fe  Fe36  1  0.62738258  0.37729126  0.62694181  1
  Fe  Fe37  1  0.87453051  0.62434264  0.88533416  1
  Fe  Fe38  1  0.62626039  0.37463170  0.39877241  1
  Fe  Fe39  1  0.62780661  0.12392164  0.63170954  1
  Fe  Fe40  1  0.12759787  0.12631663  0.38646994  1
  Fe  Fe41  1  0.62438620  0.87463767  0.13298455  1
  Fe  Fe42  1  0.12603296  0.12582063  0.13693447  1
  Fe  Fe43  1  0.37367580  0.37551723  0.63586986  1
  Fe  Fe44  1  0.37678797  0.12645854  0.13433251  1
  Fe  Fe45  1  0.87501022  0.87590969  0.88766846  1
  Fe  Fe46  1  0.87242392  0.37485370  0.88401129  1
  Fe  Fe47  1  0.62520032  0.62396574  0.13629264  1
  Fe  Fe48  1  0.12372972  0.37465447  0.87672347  1
  Fe  Fe49  1  0.37624965  0.87370963  0.88135172  1
  Fe  Fe50  1  0.12194627  0.37608653  0.13425677  1
  Fe  Fe51  1  0.37346033  0.37451421  0.39498183  1
  Fe  Fe52  1  0.37471531  0.62477606  0.88787036  1
  Fe  Fe53  1  0.37184116  0.62851083  0.62796644  1
  Fe  Fe54  1  0.37468498  0.12223819  0.64223468  1
  Fe  Fe55  1  0.12356277  0.12251840  0.87929551  1
  Fe  Fe56  1  0.12619636  0.87682533  0.38339191  1
  Fe  Fe57  1  0.87464448  0.12267307  0.63321432  1
  Fe  Fe58  1  0.87670249  0.37411101  0.63274358  1
  Fe  Fe59  1  0.87384497  0.87487263  0.38229872  1
  Fe  Fe60  1  0.37491845  0.87281835  0.63771468  1
  Fe  Fe61  1  0.12133253  0.63199628  0.63290049  1
  Fe  Fe62  1  0.37691681  0.62452206  0.39555767  1
  Fe  Fe63  1  0.62659662  0.87553923  0.88387852  1
  Pb  Pb64  1  0.00693099  0.00698266  0.00026875  1
  Pb  Pb65  1  0.00312936  -0.00368411  0.25321830  1
  Pb  Pb66  1  0.00512517  -0.00411830  0.49451161  1
  Pb  Pb67  1  0.00429856  0.00210617  0.75199341  1
  Pb  Pb68  1  0.01432118  0.25436650  -0.00392349  1
  Pb  Pb69  1  0.00536209  0.24510328  0.25001155  1
  Pb  Pb70  1  -0.00720971  0.25103900  0.50562644  1
  Pb  Pb71  1  -0.00123940  0.25868633  0.75171643  1
  Pb  Pb72  1  0.00137794  0.49189021  -0.00553204  1
  Pb  Pb73  1  -0.00221684  0.49949428  0.24923946  1
  Pb  Pb74  1  0.00394848  0.50458341  0.50444981  1
  Pb  Pb75  1  -0.00637685  0.49621014  0.75449926  1
  Pb  Pb76  1  -0.00268058  0.75096645  -0.00308622  1
  Pb  Pb77  1  0.00022519  0.75713689  0.25490157  1
  Pb  Pb78  1  0.00498715  0.74805543  0.49726359  1
  Pb  Pb79  1  -0.00995926  0.75056468  0.75411910  1
  Pb  Pb80  1  0.25596219  0.01455720  -0.00518112  1
  Pb  Pb81  1  0.24375347  0.00382541  0.25008723  1
  Pb  Pb82  1  0.25863990  0.00105058  0.50413605  1
  Pb  Pb83  1  0.25206544  0.00604909  0.75165342  1
  Pb  Pb84  1  0.24973724  0.24872234  -0.01456327  1
  Pb  Pb85  1  0.24516897  0.24505692  0.24879890  1
  Pb  Pb86  1  0.26304154  0.24620030  0.51168811  1
  Pb  Pb87  1  0.25265180  0.25352783  0.75045089  1
  Pb  Pb88  1  0.25249062  0.49405091  -0.00834177  1
  Pb  Pb89  1  0.26495058  0.49913001  0.26188394  1
  Pb  Pb90  1  0.25549697  0.50174841  0.50419473  1
  Pb  Pb91  1  0.26130438  0.50773924  0.74715045  1
  Pb  Pb92  1  0.25797298  0.74666282  -0.00152761  1
  Pb  Pb93  1  0.24941176  0.75003676  0.25249333  1
  Pb  Pb94  1  0.25771814  0.75238404  0.50375376  1
  Pb  Pb95  1  0.26168592  0.74632312  0.74931206  1
  Pb  Pb96  1  0.49850016  0.00034195  -0.00768363  1
  Pb  Pb97  1  0.50359159  0.00473894  0.24451743  1
  Pb  Pb98  1  0.50018578  0.00781207  0.50817540  1
  Pb  Pb99  1  0.49266608  -0.00011572  0.74717685  1
  Pb  Pb100  1  0.49339514  0.24174901  -0.00482720  1
  Pb  Pb101  1  0.49975448  0.25986982  0.25447619  1
  Pb  Pb102  1  0.49970291  0.25585569  0.50718538  1
  Pb  Pb103  1  0.49742030  0.24998967  0.73690757  1
  Pb  Pb104  1  0.49678990  0.50821294  0.00030869  1
  Pb  Pb105  1  0.49064617  0.49991604  0.25917981  1
  Pb  Pb106  1  0.49709593  0.49199084  0.50257644  1
  Pb  Pb107  1  0.49203035  0.49637364  0.74130197  1
  Pb  Pb108  1  0.50424659  0.75264105  -0.00344483  1
  Pb  Pb109  1  0.49844618  0.74221128  0.24542704  1
  Pb  Pb110  1  0.49191947  0.75402176  0.50453318  1
  Pb  Pb111  1  0.49242258  0.75033241  0.75230540  1
  Pb  Pb112  1  0.74166663  -0.00329934  0.00001994  1
  Pb  Pb113  1  0.75241327  -0.00213908  0.24825633  1
  Pb  Pb114  1  0.74980049  0.00695658  0.50355928  1
  Pb  Pb115  1  0.74845245  -0.00846677  0.75161921  1
  Pb  Pb116  1  0.74398351  0.24442111  -0.00146199  1
  Pb  Pb117  1  0.74350723  0.25787779  0.25682398  1
  Pb  Pb118  1  0.75477322  0.24604065  0.50781119  1
  Pb  Pb119  1  0.75184423  0.25120598  0.73595663  1
  Pb  Pb120  1  0.74622568  0.50348814  -0.00233719  1
  Pb  Pb121  1  0.74256565  0.49282384  0.25424444  1
  Pb  Pb122  1  0.75186960  0.49280767  0.50433808  1
  Pb  Pb123  1  0.75782839  0.49803445  0.74640595  1
  Pb  Pb124  1  0.74430858  0.75269322  -0.00105794  1
  Pb  Pb125  1  0.75105514  0.75167184  0.24592645  1
  Pb  Pb126  1  0.74963925  0.75220607  0.49778131  1
  Pb  Pb127  1  0.75231862  0.75519180  0.75748070  1
  O  O128  1  0.12513588  -0.00322677  0.16579953  1
  O  O129  1  0.12642702  0.00201316  0.41542657  1
  O  O130  1  0.11984948  -0.01072273  0.66498470  1
  O  O131  1  0.12296276  -0.00686015  0.91297030  1
  O  O132  1  0.12324260  0.25236739  0.16682702  1
  O  O133  1  0.12184106  0.25550011  0.41446241  1
  O  O134  1  0.12087601  0.24405062  0.65947459  1
  O  O135  1  0.12135205  0.24811276  0.90558082  1
  O  O136  1  0.11986875  0.50515485  0.16479928  1
  O  O137  1  0.12166420  0.50023022  0.41837290  1
  O  O138  1  0.12006695  0.50105034  0.65785113  1
  O  O139  1  0.12305812  0.50752985  0.90485105  1
  O  O140  1  0.12451896  0.74482184  0.17019219  1
  O  O141  1  0.12206843  0.74525137  0.41029778  1
  O  O142  1  0.11448258  0.75975298  0.66251553  1
  O  O143  1  0.12385546  0.75145422  0.91358899  1
  O  O144  1  0.37306074  -0.00772833  0.16200973  1
  O  O145  1  0.37750544  0.00047019  0.41691033  1
  O  O146  1  0.37518309  -0.00474290  0.66312932  1
  O  O147  1  0.37702863  -0.00032904  0.90876906  1
  O  O148  1  0.37841560  0.26063288  0.16455665  1
  O  O149  1  0.37600584  0.24300311  0.41654406  1
  O  O150  1  0.37003728  0.24997857  0.66064229  1
  O  O151  1  0.37852658  0.25088013  0.90532521  1
  O  O152  1  0.37660948  0.49239144  0.16807528  1
  O  O153  1  0.37249114  0.50028985  0.42071676  1
  O  O154  1  0.37220235  0.50409042  0.65569556  1
  O  O155  1  0.37696836  0.49953118  0.91361553  1
  O  O156  1  0.37169148  0.75417861  0.16450528  1
  O  O157  1  0.37688754  0.75655105  0.41159012  1
  O  O158  1  0.37781035  0.74851835  0.66497099  1
  O  O159  1  0.37394280  0.74963523  0.91627253  1
  O  O160  1  0.62546641  0.00006032  0.16491636  1
  O  O161  1  0.62369531  0.00056146  0.41731968  1
  O  O162  1  0.63067246  -0.01148007  0.66003846  1
  O  O163  1  0.62798561  0.00878395  0.90803750  1
  O  O164  1  0.62738349  0.25732102  0.17020250  1
  O  O165  1  0.62481631  0.24081992  0.41702593  1
  O  O166  1  0.62752470  0.25152131  0.65358520  1
  O  O167  1  0.62673368  0.25005606  0.90950873  1
  O  O168  1  0.62976514  0.49223662  0.16690086  1
  O  O169  1  0.62801667  0.51020771  0.41491326  1
  O  O170  1  0.63158146  0.51170592  0.65717799  1
  O  O171  1  0.62631519  0.49743555  0.91060520  1
  O  O172  1  0.62558248  0.75052662  0.16613557  1
  O  O173  1  0.62753344  0.75011897  0.41543103  1
  O  O174  1  0.63213890  0.74699403  0.66711615  1
  O  O175  1  0.62658615  0.74201818  0.90736090  1
  O  O176  1  0.87541248  0.00447737  0.16558193  1
  O  O177  1  0.87287927  0.00598138  0.41176072  1
  O  O178  1  0.87199280  -0.00824197  0.66112943  1
  O  O179  1  0.87117900  0.00791998  0.91568604  1
  O  O180  1  0.87428133  0.24769262  0.16566661  1
  O  O181  1  0.87436669  0.24647240  0.41766541  1
  O  O182  1  0.87869458  0.24836137  0.65965962  1
  O  O183  1  0.87188975  0.24175075  0.91113303  1
  O  O184  1  0.87534590  0.49844676  0.16704797  1
  O  O185  1  0.87567841  0.50340889  0.41797335  1
  O  O186  1  0.87723515  0.50700111  0.65940516  1
  O  O187  1  0.87256085  0.50031001  0.91644051  1
  O  O188  1  0.87701533  0.74904144  0.16592828  1
  O  O189  1  0.87480393  0.74562894  0.41106206  1
  O  O190  1  0.87457679  0.75148316  0.66647109  1
  O  O191  1  0.87516033  0.74898871  0.91829689  1
  O  O192  1  -0.00812418  0.12535602  0.16587036  1
  O  O193  1  -0.00496216  0.12672074  0.41159267  1
  O  O194  1  0.00341235  0.11565612  0.66304665  1
  O  O195  1  -0.00682995  0.12112572  0.90890329  1
  O  O196  1  -0.00565931  0.37505131  0.16722359  1
  O  O197  1  0.00419011  0.37652504  0.41932912  1
  O  O198  1  0.00430096  0.37385202  0.66399522  1
  O  O199  1  -0.00181436  0.37589149  0.91175861  1
  O  O200  1  0.00117977  0.62534696  0.16904118  1
  O  O201  1  -0.00060977  0.62385716  0.41527328  1
  O  O202  1  -0.00715081  0.62943929  0.66454793  1
  O  O203  1  0.00757640  0.62804445  0.91273612  1
  O  O204  1  0.00067784  0.87424147  0.16927344  1
  O  O205  1  -0.00116825  0.87667025  0.41178021  1
  O  O206  1  -0.00628104  0.87443519  0.66292071  1
  O  O207  1  0.00557989  0.87462718  0.91667924  1
  O  O208  1  0.25336332  0.12691511  0.16600783  1
  O  O209  1  0.25739337  0.12380146  0.41457756  1
  O  O210  1  0.23898054  0.11780913  0.66414257  1
  O  O211  1  0.24945582  0.12320004  0.90552954  1
  O  O212  1  0.25222243  0.37779043  0.15900519  1
  O  O213  1  0.24001610  0.37613318  0.41742122  1
  O  O214  1  0.23988132  0.37310449  0.66226582  1
  O  O215  1  0.24947629  0.37634421  0.90485914  1
  O  O216  1  0.24297031  0.62328028  0.16593646  1
  O  O217  1  0.24235524  0.62493144  0.41307207  1
  O  O218  1  0.24599684  0.63064444  0.65679650  1
  O  O219  1  0.24028949  0.62728309  0.91171954  1
  O  O220  1  0.25265928  0.87191469  0.16808898  1
  O  O221  1  0.25758650  0.87663977  0.41222537  1
  O  O222  1  0.24158498  0.87138800  0.65410611  1
  O  O223  1  0.24244938  0.87365647  0.91240871  1
  O  O224  1  0.49949980  0.12893308  0.16961826  1
  O  O225  1  0.49856305  0.12196524  0.41868685  1
  O  O226  1  0.50400907  0.12033493  0.66071952  1
  O  O227  1  0.50812833  0.12701959  0.90600941  1
  O  O228  1  0.50372403  0.37592352  0.16314793  1
  O  O229  1  0.49971197  0.37384160  0.41871934  1
  O  O230  1  0.50252189  0.38035215  0.65502645  1
  O  O231  1  0.50988720  0.37494003  0.91065797  1
  O  O232  1  0.49918102  0.62135809  0.16714353  1
  O  O233  1  0.50918769  0.62873855  0.41357862  1
  O  O234  1  0.50905157  0.62923571  0.65318883  1
  O  O235  1  0.50772795  0.62220201  0.91169417  1
  O  O236  1  0.49205843  0.87311770  0.15985160  1
  O  O237  1  0.49911698  0.87684632  0.41797457  1
  O  O238  1  0.50982244  0.86843975  0.65908608  1
  O  O239  1  0.50207699  0.87356477  0.91208067  1
  O  O240  1  0.75620631  0.12660407  0.16781175  1
  O  O241  1  0.74887519  0.12403726  0.41482734  1
  O  O242  1  0.75087784  0.12088162  0.66405468  1
  O  O243  1  0.74827281  0.12725407  0.91242294  1
  O  O244  1  0.75107308  0.37345426  0.16912344  1
  O  O245  1  0.75586458  0.37507774  0.41889236  1
  O  O246  1  0.75148644  0.38049281  0.65725794  1
  O  O247  1  0.74176944  0.37358867  0.91334690  1
  O  O248  1  0.75501251  0.62357045  0.16690562  1
  O  O249  1  0.74892684  0.62723727  0.41578563  1
  O  O250  1  0.75501251  0.62854820  0.66505612  1
  O  O251  1  0.74297771  0.62196747  0.91233897  1
  O  O252  1  0.75437445  0.87581352  0.16372828  1
  O  O253  1  0.74625927  0.87653407  0.41377890  1
  O  O254  1  0.75322530  0.86912529  0.66569530  1
  O  O255  1  0.75008674  0.87572759  0.91836952  1
  O  O256  1  0.12054934  0.12182361  0.03679465  1
  O  O257  1  0.12824549  0.12926679  0.28646764  1
  O  O258  1  0.12340501  0.12255266  0.55112083  1
  O  O259  1  0.12153843  0.11393108  0.77956071  1
  O  O260  1  0.11718164  0.37533794  0.03496604  1
  O  O261  1  0.12422680  0.37561438  0.30142166  1
  O  O262  1  0.12191656  0.37640648  0.55182849  1
  O  O263  1  0.11673832  0.37319907  0.77641130  1
  O  O264  1  0.12409925  0.62424146  0.05184396  1
  O  O265  1  0.12286412  0.61956673  0.30273365  1
  O  O266  1  0.11413424  0.62890257  0.53303251  1
  O  O267  1  0.12260956  0.62927462  0.79357310  1
  O  O268  1  0.12606431  0.87049804  0.05393220  1
  O  O269  1  0.12585746  0.87353614  0.28323231  1
  O  O270  1  0.11968330  0.87578916  0.54439024  1
  O  O271  1  0.12410215  0.87336574  0.79777771  1
  O  O272  1  0.37864209  0.12658592  0.03434430  1
  O  O273  1  0.37820270  0.12475249  0.30285444  1
  O  O274  1  0.36741720  0.12150573  0.53969960  1
  O  O275  1  0.37363885  0.11998301  0.77489237  1
  O  O276  1  0.37266477  0.37697660  0.04806720  1
  O  O277  1  0.37301700  0.38151031  0.29359336  1
  O  O278  1  0.36898228  0.36940010  0.53312001  1
  O  O279  1  0.37637073  0.38377260  0.77575913  1
  O  O280  1  0.37347271  0.62047887  0.03663796  1
  O  O281  1  0.37530317  0.61420365  0.29379035  1
  O  O282  1  0.37280556  0.63725159  0.52572364  1
  O  O283  1  0.37012164  0.62736801  0.78663357  1
  O  O284  1  0.37092354  0.87332313  0.04671157  1
  O  O285  1  0.37896838  0.87844655  0.30175528  1
  O  O286  1  0.37342679  0.86670800  0.53614645  1
  O  O287  1  0.37765021  0.86510778  0.78046690  1
  O  O288  1  0.62702366  0.13339609  0.03710940  1
  O  O289  1  0.62311276  0.12324600  0.30615576  1
  O  O290  1  0.62875231  0.11484957  0.53080159  1
  O  O291  1  0.62972304  0.12760505  0.79450044  1
  O  O292  1  0.62345211  0.37395979  0.05172814  1
  O  O293  1  0.63097602  0.37327626  0.29705528  1
  O  O294  1  0.62694202  0.38102254  0.52495788  1
  O  O295  1  0.62518851  0.37697093  0.79436329  1
  O  O296  1  0.62530696  0.61926791  0.03707915  1
  O  O297  1  0.62705044  0.62601694  0.29935656  1
  O  O298  1  0.63288823  0.63355360  0.54578394  1
  O  O299  1  0.62464580  0.62026922  0.79558736  1
  O  O300  1  0.62761979  0.87390985  0.03307086  1
  O  O301  1  0.62222920  0.87538102  0.29799714  1
  O  O302  1  0.63195401  0.86778528  0.55073847  1
  O  O303  1  0.63444079  0.87488105  0.78363048  1
  O  O304  1  0.87223513  0.12694470  0.05010095  1
  O  O305  1  0.87344909  0.12705930  0.30210995  1
  O  O306  1  0.87058271  0.12598126  0.53282434  1
  O  O307  1  0.87395571  0.12251976  0.79574047  1
  O  O308  1  0.87393290  0.37355971  0.04726363  1
  O  O309  1  0.87843495  0.37390025  0.30626365  1
  O  O310  1  0.88018681  0.37229267  0.53193052  1
  O  O311  1  0.87892122  0.38116304  0.78368014  1
  O  O312  1  0.87602097  0.62317854  0.04895242  1
  O  O313  1  0.87432145  0.62146360  0.29724493  1
  O  O314  1  0.87379333  0.63135145  0.55079163  1
  O  O315  1  0.87775962  0.62424339  0.78562826  1
  O  O316  1  0.88034807  0.87655119  0.05142845  1
  O  O317  1  0.87558545  0.87733485  0.28261910  1
  O  O318  1  0.87448013  0.87213518  0.54981810  1
  O  O319  1  0.87149131  0.87104436  0.78778626  1
