# generated using pymatgen
data_VFe(PbO3)2
_symmetry_space_group_name_H-M   'P 1'
_cell_length_a   15.39851621
_cell_length_b   15.40024312
_cell_length_c   18.48856157
_cell_angle_alpha   89.92144813
_cell_angle_beta   90.02198900
_cell_angle_gamma   90.00466159
_symmetry_Int_Tables_number   1
_chemical_formula_structural   VFe(PbO3)2
_chemical_formula_sum   'V32 Fe32 Pb64 O192'
_cell_volume   4384.38955097
_cell_formula_units_Z   32
loop_
 _symmetry_equiv_pos_site_id
 _symmetry_equiv_pos_as_xyz
  1  'x, y, z'
loop_
 _atom_site_type_symbol
 _atom_site_label
 _atom_site_symmetry_multiplicity
 _atom_site_fract_x
 _atom_site_fract_y
 _atom_site_fract_z
 _atom_site_occupancy
  V  V0  1  0.12453804  0.87643920  0.38831256  1
  V  V1  1  0.12104911  0.87136612  0.13703697  1
  V  V2  1  0.37190301  0.37619408  0.89967435  1
  V  V3  1  0.87547043  0.12478909  0.38817769  1
  V  V4  1  0.87639393  0.37620141  0.38347874  1
  V  V5  1  0.62583804  0.12836572  0.89133291  1
  V  V6  1  0.62750378  0.62609336  0.14560810  1
  V  V7  1  0.12702976  0.12202078  0.38536344  1
  V  V8  1  0.37070973  0.62403864  0.63867035  1
  V  V9  1  0.87465445  0.62392726  0.88601018  1
  V  V10  1  0.87416513  0.12579506  0.13626825  1
  V  V11  1  0.37391341  0.87192851  0.13605589  1
  V  V12  1  0.12880787  0.86676003  0.63810782  1
  V  V13  1  0.37603710  0.12945136  0.64678027  1
  V  V14  1  0.37440254  0.37406269  0.63757475  1
  V  V15  1  0.12613370  0.12546901  0.64651897  1
  V  V16  1  0.62308800  0.37790861  0.89418641  1
  V  V17  1  0.13020035  0.37188748  0.63951705  1
  V  V18  1  0.87524777  0.12775312  0.88915211  1
  V  V19  1  0.87477182  0.62712353  0.14545556  1
  V  V20  1  0.12987464  0.62929087  0.15288424  1
  V  V21  1  0.12492455  0.62301801  0.89043407  1
  V  V22  1  0.12276371  0.87259015  0.88897213  1
  V  V23  1  0.63026755  0.37353257  0.14512345  1
  V  V24  1  0.87893959  0.37132614  0.63744825  1
  V  V25  1  0.62852075  0.12921441  0.64167513  1
  V  V26  1  0.62051088  0.37117309  0.63582670  1
  V  V27  1  0.87158947  0.37470659  0.89714897  1
  V  V28  1  0.62445348  0.88095349  0.39323067  1
  V  V29  1  0.37796676  0.12133591  0.38000283  1
  V  V30  1  0.62470424  0.87050620  0.13961308  1
  V  V31  1  0.87183165  0.87239116  0.13985947  1
  Fe  Fe32  1  0.12062256  0.37697248  0.13474210  1
  Fe  Fe33  1  0.87575572  0.87489928  0.88269996  1
  Fe  Fe34  1  0.37587849  0.87303911  0.87908447  1
  Fe  Fe35  1  0.37383519  0.87930762  0.38792144  1
  Fe  Fe36  1  0.62890053  0.11843622  0.14321882  1
  Fe  Fe37  1  0.62402469  0.62593512  0.39132092  1
  Fe  Fe38  1  0.62614856  0.36853836  0.38026066  1
  Fe  Fe39  1  0.62411263  0.62158975  0.63238658  1
  Fe  Fe40  1  0.37521386  0.62780081  0.37629783  1
  Fe  Fe41  1  0.37359232  0.37139923  0.37226720  1
  Fe  Fe42  1  0.37764198  0.12235833  0.12537075  1
  Fe  Fe43  1  0.37851469  0.62695260  0.14767251  1
  Fe  Fe44  1  0.37849167  0.37654107  0.14295444  1
  Fe  Fe45  1  0.12307634  0.12691394  0.89782741  1
  Fe  Fe46  1  0.87895906  0.13107175  0.63707946  1
  Fe  Fe47  1  0.12512612  0.62353761  0.37457073  1
  Fe  Fe48  1  0.87512680  0.62637035  0.39336101  1
  Fe  Fe49  1  0.37075851  0.87773162  0.64807034  1
  Fe  Fe50  1  0.87106556  0.37970113  0.13516657  1
  Fe  Fe51  1  0.12240337  0.36944921  0.37432141  1
  Fe  Fe52  1  0.62597866  0.62072987  0.87757739  1
  Fe  Fe53  1  0.62283550  0.87788570  0.64673203  1
  Fe  Fe54  1  0.87892735  0.87982360  0.63000642  1
  Fe  Fe55  1  0.87593330  0.87913855  0.39931919  1
  Fe  Fe56  1  0.62647467  0.12193610  0.37617820  1
  Fe  Fe57  1  0.12275738  0.11709259  0.12661185  1
  Fe  Fe58  1  0.12557470  0.61861359  0.63264299  1
  Fe  Fe59  1  0.37577896  0.62224721  0.88557856  1
  Fe  Fe60  1  0.12279673  0.37954444  0.89989913  1
  Fe  Fe61  1  0.62777222  0.87331208  0.87440083  1
  Fe  Fe62  1  0.87983171  0.62101547  0.62662188  1
  Fe  Fe63  1  0.37568597  0.12695968  0.89972984  1
  Pb  Pb64  1  -0.00073318  0.00202443  -0.00093568  1
  Pb  Pb65  1  -0.00666242  -0.00910295  0.25061556  1
  Pb  Pb66  1  -0.00526622  0.00509380  0.50542811  1
  Pb  Pb67  1  -0.00210374  -0.00015742  0.75070883  1
  Pb  Pb68  1  0.00505853  0.25704031  0.00753679  1
  Pb  Pb69  1  0.00649475  0.25431125  0.23930685  1
  Pb  Pb70  1  -0.00235052  0.24632572  0.49830963  1
  Pb  Pb71  1  0.01669796  0.25318470  0.76337496  1
  Pb  Pb72  1  -0.00071253  0.49590873  0.00821612  1
  Pb  Pb73  1  0.00438741  0.50128919  0.25257665  1
  Pb  Pb74  1  0.01005996  0.50825131  0.49410047  1
  Pb  Pb75  1  0.00669183  0.49103373  0.74954702  1
  Pb  Pb76  1  -0.00086819  0.74601970  0.00062442  1
  Pb  Pb77  1  -0.00683449  0.74610511  0.25922003  1
  Pb  Pb78  1  -0.00242259  0.74156227  0.49743933  1
  Pb  Pb79  1  -0.00821886  0.74593886  0.74039029  1
  Pb  Pb80  1  0.25246395  0.00383285  -0.00394454  1
  Pb  Pb81  1  0.25474600  -0.00261130  0.24212302  1
  Pb  Pb82  1  0.25449946  -0.00439336  0.50526809  1
  Pb  Pb83  1  0.25221859  0.01014255  0.76181342  1
  Pb  Pb84  1  0.24034847  0.24929765  0.00701385  1
  Pb  Pb85  1  0.24943554  0.24927885  0.23085295  1
  Pb  Pb86  1  0.24899325  0.25226869  0.48968705  1
  Pb  Pb87  1  0.24841895  0.24394155  0.76588343  1
  Pb  Pb88  1  0.26646462  0.49872724  0.01850301  1
  Pb  Pb89  1  0.25346338  0.48766057  0.24934975  1
  Pb  Pb90  1  0.24742331  0.49942880  0.48095474  1
  Pb  Pb91  1  0.25369989  0.49793910  0.75176408  1
  Pb  Pb92  1  0.25849093  0.74366027  0.00010355  1
  Pb  Pb93  1  0.26115652  0.75448059  0.25666798  1
  Pb  Pb94  1  0.25231700  0.74343820  0.49272613  1
  Pb  Pb95  1  0.26202784  0.74503606  0.75579524  1
  Pb  Pb96  1  0.49940330  -0.00049227  -0.00608409  1
  Pb  Pb97  1  0.50155003  0.00128405  0.24517909  1
  Pb  Pb98  1  0.49954436  -0.01564176  0.51404293  1
  Pb  Pb99  1  0.49672345  -0.00621674  0.75576856  1
  Pb  Pb100  1  0.49693547  0.24949244  0.01140868  1
  Pb  Pb101  1  0.50186559  0.24723108  0.24397936  1
  Pb  Pb102  1  0.50166765  0.24855553  0.48750225  1
  Pb  Pb103  1  0.48993177  0.24781234  0.75861467  1
  Pb  Pb104  1  0.49353631  0.50665910  0.00923582  1
  Pb  Pb105  1  0.49705030  0.49960371  0.25494371  1
  Pb  Pb106  1  0.49778925  0.49903574  0.48517781  1
  Pb  Pb107  1  0.49999165  0.50675648  0.74943358  1
  Pb  Pb108  1  0.50174612  0.74684624  -0.01417178  1
  Pb  Pb109  1  0.50257918  0.74694389  0.25763903  1
  Pb  Pb110  1  0.50009645  0.74909433  0.49924210  1
  Pb  Pb111  1  0.50765205  0.74765023  0.74601328  1
  Pb  Pb112  1  0.74396492  0.00300981  -0.00145249  1
  Pb  Pb113  1  0.75771105  -0.01045012  0.25485042  1
  Pb  Pb114  1  0.74414378  -0.00955421  0.50989088  1
  Pb  Pb115  1  0.75982708  -0.01305707  0.74934984  1
  Pb  Pb116  1  0.74471879  0.24382774  0.00834879  1
  Pb  Pb117  1  0.74348696  0.24909063  0.25346637  1
  Pb  Pb118  1  0.75351543  0.24413746  0.49514888  1
  Pb  Pb119  1  0.75111249  0.25595150  0.75011538  1
  Pb  Pb120  1  0.75348446  0.49745376  0.00317170  1
  Pb  Pb121  1  0.74836790  0.51163317  0.26086499  1
  Pb  Pb122  1  0.74161253  0.50699448  0.49816099  1
  Pb  Pb123  1  0.74574567  0.50477573  0.74175855  1
  Pb  Pb124  1  0.74548830  0.75322430  -0.01102969  1
  Pb  Pb125  1  0.75365295  0.74443323  0.26489692  1
  Pb  Pb126  1  0.74978313  0.74443710  0.50353514  1
  Pb  Pb127  1  0.75083321  0.75005597  0.73510318  1
  O  O128  1  0.12215454  -0.00984651  0.16023300  1
  O  O129  1  0.12443847  0.00642232  0.41601052  1
  O  O130  1  0.12967335  0.01061938  0.66693262  1
  O  O131  1  0.12090821  -0.00949966  0.90995365  1
  O  O132  1  0.11941388  0.24453223  0.14996716  1
  O  O133  1  0.12422092  0.24114393  0.40903059  1
  O  O134  1  0.12770732  0.25152520  0.67328667  1
  O  O135  1  0.12155585  0.25359203  0.92248378  1
  O  O136  1  0.11862743  0.51043898  0.16192261  1
  O  O137  1  0.12431903  0.49589870  0.40002667  1
  O  O138  1  0.12553527  0.49161960  0.66670912  1
  O  O139  1  0.11881663  0.51038031  0.91720911  1
  O  O140  1  0.12182225  0.75407739  0.17370220  1
  O  O141  1  0.12638169  0.75954573  0.40394452  1
  O  O142  1  0.12492590  0.75220729  0.65291483  1
  O  O143  1  0.11932186  0.74507803  0.91736400  1
  O  O144  1  0.37830928  -0.01063337  0.15811619  1
  O  O145  1  0.37006752  0.00959895  0.41464131  1
  O  O146  1  0.36842316  0.01318683  0.67086820  1
  O  O147  1  0.37448126  -0.00400692  0.91116216  1
  O  O148  1  0.37934135  0.24796817  0.15121773  1
  O  O149  1  0.36937211  0.23755046  0.40599993  1
  O  O150  1  0.37309856  0.25045006  0.67214003  1
  O  O151  1  0.38060311  0.26046279  0.92416093  1
  O  O152  1  0.37984608  0.50311042  0.16994886  1
  O  O153  1  0.37465505  0.49865501  0.39864302  1
  O  O154  1  0.37222833  0.49834610  0.66383221  1
  O  O155  1  0.37739829  0.49620224  0.92136487  1
  O  O156  1  0.37832467  0.75818841  0.16532194  1
  O  O157  1  0.37300032  0.75431038  0.41412258  1
  O  O158  1  0.36903609  0.74263950  0.66031522  1
  O  O159  1  0.37172471  0.74856747  0.91243635  1
  O  O160  1  0.62842139  -0.01333846  0.16404398  1
  O  O161  1  0.62397996  0.00085353  0.41519625  1
  O  O162  1  0.62029841  0.01738085  0.66870723  1
  O  O163  1  0.62866777  0.00893551  0.90671531  1
  O  O164  1  0.63040844  0.25407260  0.15759994  1
  O  O165  1  0.62646411  0.24272538  0.41386307  1
  O  O166  1  0.61920522  0.24808840  0.67158173  1
  O  O167  1  0.62787470  0.25245173  0.92187089  1
  O  O168  1  0.63052909  0.50860879  0.16616895  1
  O  O169  1  0.62591467  0.49395424  0.40939614  1
  O  O170  1  0.62235745  0.49149792  0.66044620  1
  O  O171  1  0.62942997  0.49383076  0.91339615  1
  O  O172  1  0.62900187  0.75360610  0.16996391  1
  O  O173  1  0.62421983  0.76191561  0.41757389  1
  O  O174  1  0.62246935  0.74727918  0.65802672  1
  O  O175  1  0.62888727  0.74666322  0.90474534  1
  O  O176  1  0.87362031  -0.00433656  0.16567606  1
  O  O177  1  0.88013953  0.01112333  0.41638093  1
  O  O178  1  0.88131239  0.00643360  0.66346786  1
  O  O179  1  0.87182724  0.00891633  0.91092645  1
  O  O180  1  0.87446556  0.24280220  0.15230707  1
  O  O181  1  0.87955554  0.24540294  0.41328831  1
  O  O182  1  0.87478543  0.25722616  0.67052152  1
  O  O183  1  0.87043413  0.24658550  0.91819507  1
  O  O184  1  0.86879181  0.51052803  0.16564089  1
  O  O185  1  0.87492736  0.48977322  0.40356846  1
  O  O186  1  0.87577167  0.48675537  0.66049875  1
  O  O187  1  0.87462898  0.50519639  0.91555615  1
  O  O188  1  0.87088805  0.74976136  0.17084305  1
  O  O189  1  0.87620510  0.75414211  0.41674787  1
  O  O190  1  0.88135153  0.75119023  0.65144042  1
  O  O191  1  0.87571006  0.74258700  0.90926405  1
  O  O192  1  -0.00897862  0.11634487  0.15884187  1
  O  O193  1  0.00391500  0.12575944  0.41326825  1
  O  O194  1  0.00897331  0.13258751  0.66645459  1
  O  O195  1  -0.00983860  0.12630092  0.91289145  1
  O  O196  1  -0.00588997  0.37879985  0.16149526  1
  O  O197  1  -0.00608097  0.36693607  0.40717335  1
  O  O198  1  -0.00101991  0.37121465  0.66121779  1
  O  O199  1  -0.00880049  0.37774283  0.92051450  1
  O  O200  1  -0.00970544  0.63136116  0.16714899  1
  O  O201  1  0.00351168  0.62551051  0.40999921  1
  O  O202  1  0.00186453  0.61924784  0.66365278  1
  O  O203  1  -0.00332471  0.62530523  0.91672175  1
  O  O204  1  -0.00422337  0.87113589  0.16510145  1
  O  O205  1  0.01098138  0.88270350  0.41610401  1
  O  O206  1  0.01306785  0.88262003  0.66287170  1
  O  O207  1  0.00236400  0.87116996  0.91592069  1
  O  O208  1  0.25023532  0.11754600  0.14896684  1
  O  O209  1  0.24487798  0.12355244  0.40901962  1
  O  O210  1  0.24988744  0.13329269  0.67360313  1
  O  O211  1  0.24894662  0.12715880  0.92008041  1
  O  O212  1  0.24687728  0.37922421  0.15490534  1
  O  O213  1  0.24878446  0.36806615  0.40444531  1
  O  O214  1  0.25277735  0.37353435  0.66759891  1
  O  O215  1  0.25582416  0.37719490  0.91784908  1
  O  O216  1  0.24549549  0.63131052  0.16359380  1
  O  O217  1  0.24880349  0.62776651  0.40361601  1
  O  O218  1  0.25203964  0.61938639  0.66550058  1
  O  O219  1  0.24092202  0.62518021  0.91331525  1
  O  O220  1  0.25305354  0.87179071  0.15657845  1
  O  O221  1  0.24198647  0.88283882  0.41744721  1
  O  O222  1  0.23888946  0.87996422  0.67053616  1
  O  O223  1  0.23891639  0.86897011  0.91264877  1
  O  O224  1  0.50149167  0.11882421  0.16032953  1
  O  O225  1  0.49298128  0.12634832  0.39429157  1
  O  O226  1  0.49347492  0.13019881  0.66868501  1
  O  O227  1  0.51010950  0.13000644  0.91438370  1
  O  O228  1  0.51321223  0.38003361  0.16492963  1
  O  O229  1  0.49718824  0.36631655  0.40575696  1
  O  O230  1  0.49641145  0.37234180  0.66653900  1
  O  O231  1  0.50731203  0.37545888  0.92025813  1
  O  O232  1  0.51117449  0.63105971  0.16624242  1
  O  O233  1  0.49801507  0.62823334  0.41222278  1
  O  O234  1  0.49019395  0.62047916  0.65914781  1
  O  O235  1  0.50179617  0.62122490  0.91017659  1
  O  O236  1  0.50486270  0.87181930  0.15985160  1
  O  O237  1  0.50316685  0.88119108  0.41711949  1
  O  O238  1  0.49568689  0.88110961  0.66877297  1
  O  O239  1  0.50325340  0.87462135  0.90377219  1
  O  O240  1  0.76024503  0.11925824  0.16646459  1
  O  O241  1  0.75808274  0.12695029  0.40394643  1
  O  O242  1  0.74468662  0.13455674  0.65834271  1
  O  O243  1  0.74941207  0.12896384  0.91688982  1
  O  O244  1  0.74728158  0.37898547  0.16933554  1
  O  O245  1  0.75998864  0.36463363  0.41096941  1
  O  O246  1  0.74840876  0.37002356  0.66093726  1
  O  O247  1  0.74552847  0.37452843  0.92185394  1
  O  O248  1  0.74917694  0.63171043  0.17203339  1
  O  O249  1  0.74926558  0.62574208  0.41789137  1
  O  O250  1  0.75398775  0.61901845  0.65500894  1
  O  O251  1  0.75735736  0.62213466  0.90730539  1
  O  O252  1  0.74866045  0.87237272  0.16776340  1
  O  O253  1  0.74295077  0.88188399  0.41910154  1
  O  O254  1  0.75284588  0.88061900  0.65809902  1
  O  O255  1  0.75127049  0.87600250  0.90993124  1
  O  O256  1  0.11531623  0.11505858  0.02532031  1
  O  O257  1  0.12480351  0.11930062  0.29441614  1
  O  O258  1  0.13058135  0.12908298  0.55547022  1
  O  O259  1  0.12700649  0.13453612  0.79552007  1
  O  O260  1  0.11520848  0.38088134  0.03155577  1
  O  O261  1  0.11988112  0.36963630  0.27361470  1
  O  O262  1  0.13091967  0.36953433  0.54833841  1
  O  O263  1  0.11643121  0.37646518  0.79822332  1
  O  O264  1  0.11730635  0.63804403  0.06165319  1
  O  O265  1  0.11395117  0.62666842  0.27279910  1
  O  O266  1  0.12399009  0.61530238  0.53292894  1
  O  O267  1  0.12246089  0.62378267  0.79915663  1
  O  O268  1  0.11930019  0.86573779  0.04593929  1
  O  O269  1  0.12630484  0.88428039  0.29705358  1
  O  O270  1  0.13278267  0.87979679  0.54732305  1
  O  O271  1  0.12150438  0.86776666  0.79829315  1
  O  O272  1  0.38616917  0.11820875  0.02371005  1
  O  O273  1  0.36837651  0.11621886  0.28856853  1
  O  O274  1  0.37360638  0.13081296  0.55605486  1
  O  O275  1  0.37173666  0.13687908  0.79755107  1
  O  O276  1  0.38398520  0.39133093  0.04030246  1
  O  O277  1  0.37373039  0.37046635  0.27087329  1
  O  O278  1  0.37360666  0.37024892  0.54680298  1
  O  O279  1  0.37841787  0.37635673  0.80828829  1
  O  O280  1  0.37334494  0.62023798  0.04483426  1
  O  O281  1  0.38021387  0.63832856  0.27453938  1
  O  O282  1  0.36706777  0.62225708  0.54766257  1
  O  O283  1  0.36837493  0.61993708  0.78543146  1
  O  O284  1  0.37619699  0.86881166  0.04487639  1
  O  O285  1  0.36783153  0.87872799  0.28794396  1
  O  O286  1  0.37202919  0.88929555  0.54626319  1
  O  O287  1  0.36610692  0.87254700  0.77774521  1
  O  O288  1  0.63660312  0.12033883  0.04212436  1
  O  O289  1  0.62714391  0.12654427  0.27507064  1
  O  O290  1  0.61945506  0.12916332  0.55063254  1
  O  O291  1  0.62774967  0.13732681  0.80091073  1
  O  O292  1  0.63192520  0.38258095  0.05366548  1
  O  O293  1  0.62941238  0.36280971  0.28054932  1
  O  O294  1  0.61850556  0.36484000  0.54504100  1
  O  O295  1  0.62447838  0.37286940  0.80336305  1
  O  O296  1  0.63124270  0.62961736  0.05457357  1
  O  O297  1  0.63128272  0.63307257  0.28977226  1
  O  O298  1  0.62499568  0.61916553  0.53124654  1
  O  O299  1  0.62267488  0.61438817  0.77699831  1
  O  O300  1  0.62852400  0.86801152  0.04847443  1
  O  O301  1  0.62532894  0.88004083  0.30180237  1
  O  O302  1  0.61828718  0.89265150  0.54484463  1
  O  O303  1  0.62929647  0.87780511  0.77292762  1
  O  O304  1  0.87038218  0.11679889  0.04483019  1
  O  O305  1  0.88243121  0.12416789  0.29696501  1
  O  O306  1  0.88344656  0.13482151  0.53733791  1
  O  O307  1  0.87220015  0.13196165  0.79797548  1
  O  O308  1  0.86840827  0.38757674  0.03502957  1
  O  O309  1  0.87396341  0.36980759  0.29205704  1
  O  O310  1  0.87816843  0.36613450  0.54672074  1
  O  O311  1  0.86801695  0.37522209  0.80575524  1
  O  O312  1  0.87163312  0.63085993  0.05421364  1
  O  O313  1  0.86797953  0.63006238  0.29101324  1
  O  O314  1  0.88399257  0.61792210  0.52551345  1
  O  O315  1  0.87995966  0.62223758  0.79494691  1
  O  O316  1  0.87107783  0.87217191  0.04863533  1
  O  O317  1  0.87545202  0.88651911  0.29713173  1
  O  O318  1  0.87815068  0.89015102  0.52840402  1
  O  O319  1  0.87970022  0.88071393  0.78286238  1
