# generated using pymatgen
data_VFe(PbO3)2
_symmetry_space_group_name_H-M   'P 1'
_cell_length_a   15.39392358
_cell_length_b   15.39249135
_cell_length_c   18.47589234
_cell_angle_alpha   90.03423199
_cell_angle_beta   89.98632759
_cell_angle_gamma   89.99732711
_symmetry_Int_Tables_number   1
_chemical_formula_structural   VFe(PbO3)2
_chemical_formula_sum   'V32 Fe32 Pb64 O192'
_cell_volume   4377.87721671
_cell_formula_units_Z   32
loop_
 _symmetry_equiv_pos_site_id
 _symmetry_equiv_pos_as_xyz
  1  'x, y, z'
loop_
 _atom_site_type_symbol
 _atom_site_label
 _atom_site_symmetry_multiplicity
 _atom_site_fract_x
 _atom_site_fract_y
 _atom_site_fract_z
 _atom_site_occupancy
  V  V0  1  0.62157617  0.62237026  0.64273845  1
  V  V1  1  0.62067343  0.37259456  0.89532485  1
  V  V2  1  0.12565871  0.87532280  0.89057870  1
  V  V3  1  0.62701060  0.38286215  0.38524049  1
  V  V4  1  0.12369242  0.88004951  0.15479715  1
  V  V5  1  0.87458357  0.62467949  0.64117199  1
  V  V6  1  0.87204729  0.12301105  0.39083076  1
  V  V7  1  0.63053568  0.13597085  0.38767954  1
  V  V8  1  0.37505125  0.12406576  0.14738748  1
  V  V9  1  0.37122162  0.87485170  0.88855815  1
  V  V10  1  0.63086108  0.62979246  0.38377812  1
  V  V11  1  0.37313473  0.62524113  0.89279698  1
  V  V12  1  0.12788555  0.37601673  0.14607131  1
  V  V13  1  0.62895613  0.88079567  0.38895934  1
  V  V14  1  0.11817176  0.37663552  0.63277692  1
  V  V15  1  0.37640407  0.37702390  0.63534604  1
  V  V16  1  0.62465848  0.12625991  0.64287042  1
  V  V17  1  0.61915033  0.87872536  0.13799892  1
  V  V18  1  0.87394068  0.87904638  0.13962489  1
  V  V19  1  0.37639604  0.87134358  0.63120321  1
  V  V20  1  0.37399029  0.12645149  0.88828290  1
  V  V21  1  0.87438244  0.87566863  0.63938724  1
  V  V22  1  0.87170190  0.62451683  0.38512198  1
  V  V23  1  0.12414035  0.63140657  0.14858291  1
  V  V24  1  0.62450400  0.62697738  0.89636303  1
  V  V25  1  0.12871308  0.37808160  0.88994484  1
  V  V26  1  0.62516008  0.12646946  0.13646513  1
  V  V27  1  0.12856746  0.12563552  0.88725194  1
  V  V28  1  0.37574246  0.37459386  0.14829854  1
  V  V29  1  0.36556310  0.87693139  0.15840371  1
  V  V30  1  0.12396932  0.12762727  0.14983646  1
  V  V31  1  0.86800740  0.87549525  0.88662865  1
  Fe  Fe32  1  0.87054099  0.37553241  0.38686541  1
  Fe  Fe33  1  0.87177215  0.37742654  0.63813046  1
  Fe  Fe34  1  0.11960587  0.62186862  0.38010584  1
  Fe  Fe35  1  0.12929713  0.62616839  0.88696803  1
  Fe  Fe36  1  0.87656531  0.62649284  0.12748502  1
  Fe  Fe37  1  0.38163061  0.12366495  0.39474134  1
  Fe  Fe38  1  0.87766337  0.37589146  0.89438550  1
  Fe  Fe39  1  0.37904445  0.62435631  0.37877604  1
  Fe  Fe40  1  0.37801227  0.12302386  0.62482886  1
  Fe  Fe41  1  0.11976247  0.87378755  0.37974076  1
  Fe  Fe42  1  0.37686963  0.37457391  0.37978193  1
  Fe  Fe43  1  0.87684417  0.37203349  0.12727263  1
  Fe  Fe44  1  0.86999680  0.87243343  0.38618858  1
  Fe  Fe45  1  0.12442107  0.62270930  0.63014748  1
  Fe  Fe46  1  0.87539039  0.12561477  0.63857770  1
  Fe  Fe47  1  0.62161811  0.12275928  0.88330073  1
  Fe  Fe48  1  0.12060701  0.37446123  0.38087225  1
  Fe  Fe49  1  0.87614411  0.12319259  0.13243537  1
  Fe  Fe50  1  0.12392501  0.87224368  0.62896660  1
  Fe  Fe51  1  0.87778336  0.12290175  0.88473419  1
  Fe  Fe52  1  0.62292161  0.37346875  0.12951632  1
  Fe  Fe53  1  0.12285360  0.12558451  0.38884576  1
  Fe  Fe54  1  0.62531135  0.37789078  0.63814377  1
  Fe  Fe55  1  0.37682482  0.62502995  0.62872513  1
  Fe  Fe56  1  0.61785370  0.87345522  0.88120311  1
  Fe  Fe57  1  0.87902433  0.62726578  0.90026745  1
  Fe  Fe58  1  0.37326199  0.62651489  0.15066019  1
  Fe  Fe59  1  0.37683439  0.87392516  0.37709387  1
  Fe  Fe60  1  0.12636492  0.12524394  0.62530472  1
  Fe  Fe61  1  0.62796936  0.87176959  0.64613385  1
  Fe  Fe62  1  0.62544352  0.62669407  0.13307763  1
  Fe  Fe63  1  0.37246489  0.37627869  0.88755473  1
  Pb  Pb64  1  -0.00020552  0.00440765  0.00185283  1
  Pb  Pb65  1  0.00500339  0.00327519  0.25892557  1
  Pb  Pb66  1  0.00904450  -0.00569780  0.49874154  1
  Pb  Pb67  1  0.00148612  0.00570531  0.74287402  1
  Pb  Pb68  1  -0.00576632  0.24796073  -0.00042681  1
  Pb  Pb69  1  -0.00404480  0.25868438  0.25364178  1
  Pb  Pb70  1  -0.00231060  0.24754752  0.49631830  1
  Pb  Pb71  1  -0.00651351  0.24743484  0.74718296  1
  Pb  Pb72  1  -0.00329789  0.50211586  0.00078146  1
  Pb  Pb73  1  -0.00041750  0.49846641  0.24716321  1
  Pb  Pb74  1  0.00107408  0.49821556  0.49373329  1
  Pb  Pb75  1  -0.01321422  0.50447725  0.76090175  1
  Pb  Pb76  1  0.00231249  0.74950099  0.00291677  1
  Pb  Pb77  1  -0.00534266  0.76053110  0.25544485  1
  Pb  Pb78  1  0.01012698  0.75115835  0.49641819  1
  Pb  Pb79  1  0.00557384  0.73960638  0.75064960  1
  Pb  Pb80  1  0.25098554  -0.00018889  0.00299550  1
  Pb  Pb81  1  0.24732147  0.01486816  0.26835867  1
  Pb  Pb82  1  0.24595194  -0.00282432  0.48741078  1
  Pb  Pb83  1  0.25047627  0.00150586  0.73340571  1
  Pb  Pb84  1  0.24865587  0.25190073  0.00228299  1
  Pb  Pb85  1  0.24927891  0.25154061  0.26212364  1
  Pb  Pb86  1  0.24765244  0.24756169  0.48783864  1
  Pb  Pb87  1  0.25481002  0.25324450  0.73873023  1
  Pb  Pb88  1  0.25820425  0.50960284  0.00853625  1
  Pb  Pb89  1  0.24056361  0.49822212  0.26047673  1
  Pb  Pb90  1  0.24917267  0.50616948  0.48601204  1
  Pb  Pb91  1  0.24718156  0.50312185  0.74380432  1
  Pb  Pb92  1  0.25649968  0.74716281  0.00930195  1
  Pb  Pb93  1  0.24531562  0.73953570  0.26457720  1
  Pb  Pb94  1  0.24613910  0.74662191  0.48433518  1
  Pb  Pb95  1  0.24380260  0.74183632  0.74102356  1
  Pb  Pb96  1  0.49964412  -0.00323650  -0.00266007  1
  Pb  Pb97  1  0.49508659  0.00444576  0.25869859  1
  Pb  Pb98  1  0.49961787  -0.00410169  0.49995245  1
  Pb  Pb99  1  0.50458356  -0.00149509  0.74922641  1
  Pb  Pb100  1  0.50129881  0.25377671  0.00151929  1
  Pb  Pb101  1  0.49215210  0.24883610  0.25660610  1
  Pb  Pb102  1  0.49757646  0.25141768  0.49998901  1
  Pb  Pb103  1  0.50016458  0.24712052  0.74814726  1
  Pb  Pb104  1  0.50362585  0.50285286  0.00742601  1
  Pb  Pb105  1  0.49930655  0.50362769  0.24533650  1
  Pb  Pb106  1  0.49429666  0.50355794  0.49548763  1
  Pb  Pb107  1  0.49173331  0.49235539  0.75375656  1
  Pb  Pb108  1  0.49582159  0.74225096  0.00719381  1
  Pb  Pb109  1  0.49671822  0.74928836  0.25240252  1
  Pb  Pb110  1  0.49452535  0.74681526  0.49625810  1
  Pb  Pb111  1  0.50055175  0.75375630  0.74975291  1
  Pb  Pb112  1  0.74789420  0.00801427  -0.00539628  1
  Pb  Pb113  1  0.75347048  -0.00128243  0.24959046  1
  Pb  Pb114  1  0.75194128  0.00303220  0.50763160  1
  Pb  Pb115  1  0.74649601  0.00907518  0.75454019  1
  Pb  Pb116  1  0.75924072  0.24824143  -0.00332809  1
  Pb  Pb117  1  0.76020009  0.26013572  0.24403842  1
  Pb  Pb118  1  0.76044327  0.25262672  0.51124011  1
  Pb  Pb119  1  0.75755419  0.25216270  0.75281165  1
  Pb  Pb120  1  0.74984899  0.49405870  0.00348934  1
  Pb  Pb121  1  0.75458935  0.49797609  0.23264072  1
  Pb  Pb122  1  0.74725625  0.48873230  0.50484500  1
  Pb  Pb123  1  0.75725967  0.49521236  0.75873670  1
  Pb  Pb124  1  0.74498539  0.74217663  0.00562627  1
  Pb  Pb125  1  0.75570089  0.75280755  0.24514250  1
  Pb  Pb126  1  0.74209818  0.75468007  0.50616722  1
  Pb  Pb127  1  0.75699899  0.74231419  0.75519245  1
  O  O128  1  0.12656949  0.00538284  0.17300199  1
  O  O129  1  0.11956388  -0.00158173  0.40886415  1
  O  O130  1  0.12510193  -0.00257130  0.65725885  1
  O  O131  1  0.13088278  -0.00092811  0.91791112  1
  O  O132  1  0.12921870  0.24740320  0.16849407  1
  O  O133  1  0.12072839  0.25044669  0.41092174  1
  O  O134  1  0.12955919  0.25995250  0.65834511  1
  O  O135  1  0.12915852  0.24884243  0.91589989  1
  O  O136  1  0.12712348  0.49551524  0.16284443  1
  O  O137  1  0.11978621  0.49903635  0.41092920  1
  O  O138  1  0.12909069  0.49159646  0.65982003  1
  O  O139  1  0.12859093  0.49412469  0.91357733  1
  O  O140  1  0.12548385  0.74843957  0.16931775  1
  O  O141  1  0.11967094  0.74734157  0.40388287  1
  O  O142  1  0.12346429  0.74910320  0.66120582  1
  O  O143  1  0.13097296  0.75998000  0.91540412  1
  O  O144  1  0.37605185  0.00176188  0.17488294  1
  O  O145  1  0.38508585  -0.00545149  0.41223794  1
  O  O146  1  0.37751648  -0.00732907  0.65374025  1
  O  O147  1  0.37170668  0.00034543  0.91716301  1
  O  O148  1  0.37477619  0.24740447  0.17085926  1
  O  O149  1  0.38418662  0.25190020  0.41446525  1
  O  O150  1  0.37882549  0.25602021  0.65644084  1
  O  O151  1  0.37321643  0.24682471  0.91612126  1
  O  O152  1  0.37235959  0.49190105  0.16352860  1
  O  O153  1  0.38335702  0.49957794  0.40661841  1
  O  O154  1  0.37753797  0.49580233  0.66061530  1
  O  O155  1  0.37354190  0.50392263  0.91994324  1
  O  O156  1  0.37333435  0.75915937  0.16972603  1
  O  O157  1  0.38282164  0.74997114  0.40635640  1
  O  O158  1  0.37662682  0.75362374  0.65815964  1
  O  O159  1  0.37048292  0.75087521  0.91981577  1
  O  O160  1  0.62675342  -0.00234344  0.16629071  1
  O  O161  1  0.63031627  -0.00488823  0.41024454  1
  O  O162  1  0.62442143  0.00346704  0.66526206  1
  O  O163  1  0.61936934  -0.00336964  0.91457166  1
  O  O164  1  0.62087109  0.24078693  0.15512337  1
  O  O165  1  0.62836094  0.24980321  0.40447437  1
  O  O166  1  0.62337867  0.24562486  0.66486556  1
  O  O167  1  0.61971980  0.25417446  0.91025616  1
  O  O168  1  0.62278570  0.49916681  0.15729867  1
  O  O169  1  0.62768531  0.50017269  0.40523690  1
  O  O170  1  0.62598690  0.50860416  0.67035102  1
  O  O171  1  0.62016218  0.50495997  0.91897320  1
  O  O172  1  0.62932630  0.76267315  0.16095227  1
  O  O173  1  0.63040424  0.74649762  0.40885104  1
  O  O174  1  0.62815110  0.73924609  0.67197004  1
  O  O175  1  0.62052290  0.74775373  0.91498871  1
  O  O176  1  0.87554861  -0.00203495  0.16498790  1
  O  O177  1  0.86364070  0.00547459  0.41337599  1
  O  O178  1  0.87415230  -0.00718217  0.65904664  1
  O  O179  1  0.88091731  -0.00978891  0.91531086  1
  O  O180  1  0.87702242  0.24677647  0.16090156  1
  O  O181  1  0.86374752  0.24175561  0.41491803  1
  O  O182  1  0.87359871  0.25207756  0.66709226  1
  O  O183  1  0.87675766  0.24820050  0.91079932  1
  O  O184  1  0.87918984  0.49901305  0.15011843  1
  O  O185  1  0.86607917  0.50710245  0.41090831  1
  O  O186  1  0.87447435  0.50605128  0.66859295  1
  O  O187  1  0.87719396  0.50057528  0.92021604  1
  O  O188  1  0.87627019  0.75844087  0.15943280  1
  O  O189  1  0.86474736  0.73930770  0.41220199  1
  O  O190  1  0.87429637  0.74445038  0.66657078  1
  O  O191  1  0.88057033  0.76390837  0.91778543  1
  O  O192  1  0.00610948  0.12429906  0.16511570  1
  O  O193  1  -0.01264362  0.12497084  0.40678820  1
  O  O194  1  0.00341884  0.12711590  0.66211951  1
  O  O195  1  0.00806621  0.12077019  0.91373814  1
  O  O196  1  0.00802306  0.36998423  0.15960595  1
  O  O197  1  -0.00638860  0.37343017  0.41256432  1
  O  O198  1  0.00455225  0.37585644  0.65635587  1
  O  O199  1  0.01256804  0.37293109  0.91605935  1
  O  O200  1  0.00499660  0.62453402  0.16127615  1
  O  O201  1  -0.01237720  0.62258628  0.40413200  1
  O  O202  1  -0.00602621  0.62346242  0.66249749  1
  O  O203  1  0.00854243  0.62945132  0.92178534  1
  O  O204  1  -0.00544343  0.87829655  0.16559154  1
  O  O205  1  -0.00766666  0.87341586  0.41110842  1
  O  O206  1  -0.00917180  0.87018036  0.66208644  1
  O  O207  1  0.01064084  0.87840215  0.91425801  1
  O  O208  1  0.24994765  0.12401816  0.17426250  1
  O  O209  1  0.25245701  0.12256773  0.40626073  1
  O  O210  1  0.25320830  0.12635729  0.65458749  1
  O  O211  1  0.25129911  0.12400648  0.92084763  1
  O  O212  1  0.24934115  0.36974532  0.17143502  1
  O  O213  1  0.25029433  0.37503028  0.40504997  1
  O  O214  1  0.25586252  0.37588763  0.65558139  1
  O  O215  1  0.24537657  0.37269393  0.91964578  1
  O  O216  1  0.24267269  0.62437954  0.17292176  1
  O  O217  1  0.25053571  0.62430447  0.39803892  1
  O  O218  1  0.25199600  0.62293459  0.65909851  1
  O  O219  1  0.25167424  0.62671379  0.92355987  1
  O  O220  1  0.25054684  0.87920950  0.17778837  1
  O  O221  1  0.24992689  0.87338843  0.39648775  1
  O  O222  1  0.25754318  0.87320189  0.65382566  1
  O  O223  1  0.24933581  0.87818574  0.92211116  1
  O  O224  1  0.50466444  0.11967489  0.16586217  1
  O  O225  1  0.51810693  0.12162919  0.41619778  1
  O  O226  1  0.50262501  0.12465621  0.66249145  1
  O  O227  1  0.49293727  0.12464171  0.91531863  1
  O  O228  1  0.49435510  0.37043929  0.16172157  1
  O  O229  1  0.51232787  0.37349243  0.40971265  1
  O  O230  1  0.49670892  0.37722395  0.66566984  1
  O  O231  1  0.50028847  0.37783804  0.91923829  1
  O  O232  1  0.50164579  0.62977231  0.16380187  1
  O  O233  1  0.51421116  0.62436260  0.40668776  1
  O  O234  1  0.50457834  0.62535383  0.66273965  1
  O  O235  1  0.49741456  0.62788608  0.92010499  1
  O  O236  1  0.50624073  0.87867609  0.16239945  1
  O  O237  1  0.51333897  0.87068760  0.41034214  1
  O  O238  1  0.49398413  0.87134144  0.66304940  1
  O  O239  1  0.49083240  0.87327051  0.91553569  1
  O  O240  1  0.74215789  0.12020353  0.15707737  1
  O  O241  1  0.74235069  0.12236237  0.42139699  1
  O  O242  1  0.74419941  0.12409481  0.66691567  1
  O  O243  1  0.74906315  0.12069986  0.90971138  1
  O  O244  1  0.74911071  0.37122688  0.15398686  1
  O  O245  1  0.74211004  0.37463609  0.41445574  1
  O  O246  1  0.74748484  0.37806579  0.67292196  1
  O  O247  1  0.74016554  0.37871830  0.91263348  1
  O  O248  1  0.75247992  0.62892215  0.15605572  1
  O  O249  1  0.74365349  0.62224522  0.41604663  1
  O  O250  1  0.75272628  0.62428302  0.66852085  1
  O  O251  1  0.74351139  0.62928093  0.91436064  1
  O  O252  1  0.75238055  0.87965704  0.15988273  1
  O  O253  1  0.74470280  0.87110315  0.42029495  1
  O  O254  1  0.75920733  0.86910614  0.67080678  1
  O  O255  1  0.75269844  0.87635418  0.90034198  1
  O  O256  1  0.12926069  0.12481148  0.05856671  1
  O  O257  1  0.12335623  0.12136842  0.28639713  1
  O  O258  1  0.12030608  0.12316841  0.52477229  1
  O  O259  1  0.13129395  0.12489991  0.79630400  1
  O  O260  1  0.13487017  0.37160352  0.05524846  1
  O  O261  1  0.11917377  0.37747831  0.27897259  1
  O  O262  1  0.12014609  0.37787580  0.54138382  1
  O  O263  1  0.12979100  0.37526329  0.79890401  1
  O  O264  1  0.13071994  0.62940526  0.05663716  1
  O  O265  1  0.11957701  0.61495392  0.27813282  1
  O  O266  1  0.12064005  0.62447572  0.53007329  1
  O  O267  1  0.12991769  0.62896092  0.78688913  1
  O  O268  1  0.12764060  0.87825769  0.06309504  1
  O  O269  1  0.10847200  0.87556308  0.27629651  1
  O  O270  1  0.11733165  0.87127313  0.52860847  1
  O  O271  1  0.12843755  0.87711608  0.79962015  1
  O  O272  1  0.37398383  0.12387974  0.05624540  1
  O  O273  1  0.38942515  0.12534148  0.29164463  1
  O  O274  1  0.38865739  0.12394496  0.52495936  1
  O  O275  1  0.37198670  0.12515666  0.79707614  1
  O  O276  1  0.36892860  0.36738490  0.05671016  1
  O  O277  1  0.38148583  0.36770491  0.27918376  1
  O  O278  1  0.38309964  0.37866756  0.54418184  1
  O  O279  1  0.37524137  0.37825695  0.78845278  1
  O  O280  1  0.36580212  0.62999096  0.04855352  1
  O  O281  1  0.38130842  0.62866354  0.27573906  1
  O  O282  1  0.38501719  0.62370080  0.52884404  1
  O  O283  1  0.37204987  0.62552915  0.80084117  1
  O  O284  1  0.36884345  0.88205143  0.06632830  1
  O  O285  1  0.39097461  0.87763319  0.27508289  1
  O  O286  1  0.38190665  0.86898671  0.53974447  1
  O  O287  1  0.36841132  0.87342732  0.79765934  1
  O  O288  1  0.62112604  0.11930365  0.04478243  1
  O  O289  1  0.63432062  0.12751648  0.29639860  1
  O  O290  1  0.62686554  0.12429175  0.55140149  1
  O  O291  1  0.61929384  0.11921883  0.78372210  1
  O  O292  1  0.61778061  0.37417465  0.02946959  1
  O  O293  1  0.62882997  0.37810324  0.29383628  1
  O  O294  1  0.62920269  0.38270983  0.53909565  1
  O  O295  1  0.61535472  0.38074501  0.80404861  1
  O  O296  1  0.62172406  0.63492976  0.03199247  1
  O  O297  1  0.63477951  0.62920332  0.29250522  1
  O  O298  1  0.62582651  0.62393478  0.55119081  1
  O  O299  1  0.61952373  0.62357530  0.80548971  1
  O  O300  1  0.62052210  0.88048569  0.04632725  1
  O  O301  1  0.63374419  0.87810793  0.29730188  1
  O  O302  1  0.63116861  0.86692194  0.54634699  1
  O  O303  1  0.61227646  0.87386840  0.78042153  1
  O  O304  1  0.87868008  0.11972859  0.03194849  1
  O  O305  1  0.86376132  0.12479406  0.29912558  1
  O  O306  1  0.86481569  0.12758475  0.53852875  1
  O  O307  1  0.87996929  0.11998415  0.78364894  1
  O  O308  1  0.87686550  0.36579622  0.02537745  1
  O  O309  1  0.87045933  0.36601538  0.28572606  1
  O  O310  1  0.86200342  0.37555816  0.53720400  1
  O  O311  1  0.87935846  0.38501663  0.79199744  1
  O  O312  1  0.87644949  0.63729276  0.02614276  1
  O  O313  1  0.86623977  0.62574908  0.29338483  1
  O  O314  1  0.87146174  0.62392859  0.55061914  1
  O  O315  1  0.88317033  0.62506800  0.79803236  1
  O  O316  1  0.87586732  0.88093986  0.04840440  1
  O  O317  1  0.86742366  0.87075522  0.28567454  1
  O  O318  1  0.86931426  0.86954945  0.54794841  1
  O  O319  1  0.88059224  0.87401071  0.79604137  1
