# generated using pymatgen
data_VFe(PbO3)2
_symmetry_space_group_name_H-M   'P 1'
_cell_length_a   15.39542807
_cell_length_b   15.39453508
_cell_length_c   18.48325444
_cell_angle_alpha   90.01814173
_cell_angle_beta   89.96805709
_cell_angle_gamma   90.01780234
_symmetry_Int_Tables_number   1
_chemical_formula_structural   VFe(PbO3)2
_chemical_formula_sum   'V32 Fe32 Pb64 O192'
_cell_volume   4380.63106503
_cell_formula_units_Z   32
loop_
 _symmetry_equiv_pos_site_id
 _symmetry_equiv_pos_as_xyz
  1  'x, y, z'
loop_
 _atom_site_type_symbol
 _atom_site_label
 _atom_site_symmetry_multiplicity
 _atom_site_fract_x
 _atom_site_fract_y
 _atom_site_fract_z
 _atom_site_occupancy
  V  V0  1  0.37239138  0.62668619  0.38873677  1
  V  V1  1  0.37355596  0.37436097  0.88602283  1
  V  V2  1  0.62653729  0.12641484  0.64128904  1
  V  V3  1  0.86753306  0.62688725  0.65720026  1
  V  V4  1  0.12964935  0.62433664  0.88348252  1
  V  V5  1  0.12264283  0.62351671  0.64332753  1
  V  V6  1  0.62576206  0.12303112  0.13716135  1
  V  V7  1  0.37277976  0.87609791  0.88222336  1
  V  V8  1  0.87496169  0.37573508  0.64587501  1
  V  V9  1  0.62615771  0.12551153  0.39321108  1
  V  V10  1  0.12476553  0.87583123  0.39552465  1
  V  V11  1  0.62614292  0.62465723  0.13369927  1
  V  V12  1  0.37521034  0.12375666  0.39299685  1
  V  V13  1  0.87520477  0.87400471  0.39814994  1
  V  V14  1  0.62230549  0.37785097  0.64422634  1
  V  V15  1  0.62410675  0.62561753  0.39208418  1
  V  V16  1  0.12322330  0.12384522  0.39563586  1
  V  V17  1  0.62720690  0.87480350  0.13893569  1
  V  V18  1  0.87493002  0.62570294  0.39316338  1
  V  V19  1  0.37435018  0.37686294  0.63982570  1
  V  V20  1  0.12257703  0.62684308  0.39234010  1
  V  V21  1  0.37305253  0.62589358  0.64232280  1
  V  V22  1  0.86792092  0.87832735  0.65429756  1
  V  V23  1  0.87442224  0.87573294  0.13663650  1
  V  V24  1  0.37338719  0.88080772  0.63776723  1
  V  V25  1  0.87583449  0.12568351  0.87786829  1
  V  V26  1  0.12508689  0.87255167  0.65072393  1
  V  V27  1  0.12393006  0.87485131  0.13706719  1
  V  V28  1  0.87607249  0.12610965  0.40036708  1
  V  V29  1  0.87305660  0.37703615  0.39291998  1
  V  V30  1  0.87249345  0.12459454  0.13856066  1
  V  V31  1  0.12429491  0.62437022  0.13664489  1
  Fe  Fe32  1  0.62228450  0.62314024  0.64830907  1
  Fe  Fe33  1  0.12620137  0.37955636  0.64538347  1
  Fe  Fe34  1  0.87392497  0.63040859  0.13136783  1
  Fe  Fe35  1  0.87618738  0.62430363  0.87501889  1
  Fe  Fe36  1  0.62639820  0.37330917  0.38772815  1
  Fe  Fe37  1  0.37648462  0.37676843  0.38761786  1
  Fe  Fe38  1  0.37621607  0.13036303  0.64364435  1
  Fe  Fe39  1  0.61822604  0.87405272  0.64584049  1
  Fe  Fe40  1  0.62702723  0.37414529  0.12774941  1
  Fe  Fe41  1  0.87350059  0.12779601  0.63676205  1
  Fe  Fe42  1  0.12262518  0.12055917  0.13074624  1
  Fe  Fe43  1  0.37545897  0.87504015  0.13467742  1
  Fe  Fe44  1  0.62290709  0.12342070  0.88362522  1
  Fe  Fe45  1  0.37530331  0.37400245  0.13054266  1
  Fe  Fe46  1  0.87669329  0.37274648  0.88424972  1
  Fe  Fe47  1  0.37401434  0.12202641  0.13301547  1
  Fe  Fe48  1  0.37553549  0.12604310  0.87645126  1
  Fe  Fe49  1  0.37369963  0.62329012  0.89055785  1
  Fe  Fe50  1  0.12679690  0.37580650  0.87695579  1
  Fe  Fe51  1  0.12750580  0.87295958  0.87486988  1
  Fe  Fe52  1  0.62718716  0.87577334  0.39595687  1
  Fe  Fe53  1  0.12264272  0.37241942  0.13204941  1
  Fe  Fe54  1  0.12354780  0.37419523  0.38823126  1
  Fe  Fe55  1  0.12535996  0.12440248  0.88024409  1
  Fe  Fe56  1  0.87456375  0.37891124  0.12753840  1
  Fe  Fe57  1  0.87808683  0.87696474  0.86919375  1
  Fe  Fe58  1  0.62172847  0.87661711  0.87512672  1
  Fe  Fe59  1  0.12529809  0.12679671  0.63909389  1
  Fe  Fe60  1  0.62378853  0.37251261  0.88895496  1
  Fe  Fe61  1  0.37453281  0.87355910  0.39130056  1
  Fe  Fe62  1  0.37673927  0.62837642  0.13068413  1
  Fe  Fe63  1  0.62104280  0.62480162  0.87779897  1
  Pb  Pb64  1  0.00628718  0.00099946  -0.01340697  1
  Pb  Pb65  1  -0.00300115  0.00053521  0.24913366  1
  Pb  Pb66  1  0.00049126  0.00743404  0.51108180  1
  Pb  Pb67  1  0.00371294  0.00708257  0.74973409  1
  Pb  Pb68  1  0.01065624  0.25852920  -0.00810918  1
  Pb  Pb69  1  0.00767979  0.25804703  0.24715925  1
  Pb  Pb70  1  0.01063822  0.25302899  0.50843908  1
  Pb  Pb71  1  0.00945962  0.25143608  0.74869747  1
  Pb  Pb72  1  -0.00518072  0.49575823  -0.00806300  1
  Pb  Pb73  1  0.00003720  0.49606107  0.24468398  1
  Pb  Pb74  1  0.00228049  0.49439313  0.50680732  1
  Pb  Pb75  1  -0.00763881  0.49487363  0.75858299  1
  Pb  Pb76  1  -0.00561619  0.74709544  -0.01316701  1
  Pb  Pb77  1  -0.00125050  0.75084096  0.24811583  1
  Pb  Pb78  1  -0.00640558  0.75180478  0.50999436  1
  Pb  Pb79  1  -0.00455950  0.75115097  0.75793342  1
  Pb  Pb80  1  0.24992319  0.01015661  -0.00699275  1
  Pb  Pb81  1  0.25443409  0.00079647  0.24678700  1
  Pb  Pb82  1  0.24946423  0.01256030  0.50984100  1
  Pb  Pb83  1  0.24599022  0.01126336  0.75312173  1
  Pb  Pb84  1  0.24756763  0.24659730  -0.00678904  1
  Pb  Pb85  1  0.24869772  0.25044589  0.24031365  1
  Pb  Pb86  1  0.24909360  0.24560789  0.50537326  1
  Pb  Pb87  1  0.24391764  0.24583100  0.74970434  1
  Pb  Pb88  1  0.25061578  0.48861791  0.00086082  1
  Pb  Pb89  1  0.25600060  0.48813235  0.24580847  1
  Pb  Pb90  1  0.24335758  0.48950889  0.50067525  1
  Pb  Pb91  1  0.25484539  0.50204496  0.75592022  1
  Pb  Pb92  1  0.25844907  0.75248713  -0.00136448  1
  Pb  Pb93  1  0.25611111  0.75289132  0.24860833  1
  Pb  Pb94  1  0.24821127  0.75132070  0.50329065  1
  Pb  Pb95  1  0.25172352  0.75067552  0.75517992  1
  Pb  Pb96  1  0.48951207  0.00173663  -0.00585927  1
  Pb  Pb97  1  0.49667170  -0.00748914  0.25231965  1
  Pb  Pb98  1  0.50179466  -0.00520347  0.50472454  1
  Pb  Pb99  1  0.50082724  0.01071254  0.75358187  1
  Pb  Pb100  1  0.49490707  0.24876291  -0.00512353  1
  Pb  Pb101  1  0.49431776  0.26130844  0.24698154  1
  Pb  Pb102  1  0.49368202  0.24615874  0.50283252  1
  Pb  Pb103  1  0.50751134  0.25056147  0.75527028  1
  Pb  Pb104  1  0.50109558  0.49650980  -0.00537539  1
  Pb  Pb105  1  0.49590272  0.49188253  0.24432893  1
  Pb  Pb106  1  0.50128183  0.50064184  0.49876841  1
  Pb  Pb107  1  0.49795968  0.50617132  0.76003079  1
  Pb  Pb108  1  0.49582669  0.74990930  -0.00770331  1
  Pb  Pb109  1  0.49696183  0.75618155  0.25108612  1
  Pb  Pb110  1  0.50878707  0.75305718  0.50762990  1
  Pb  Pb111  1  0.49810709  0.74269535  0.75331329  1
  Pb  Pb112  1  0.75023745  -0.00493015  -0.01619319  1
  Pb  Pb113  1  0.74408866  -0.00401173  0.25548548  1
  Pb  Pb114  1  0.75338665  0.00114432  0.50895863  1
  Pb  Pb115  1  0.73545563  0.00375929  0.75545469  1
  Pb  Pb116  1  0.74836247  0.25782332  -0.00604733  1
  Pb  Pb117  1  0.74477889  0.25803241  0.24711039  1
  Pb  Pb118  1  0.75626072  0.24940923  0.50538899  1
  Pb  Pb119  1  0.74786120  0.25862972  0.75685590  1
  Pb  Pb120  1  0.75274041  0.49943623  -0.01316424  1
  Pb  Pb121  1  0.75043529  0.49768766  0.24133718  1
  Pb  Pb122  1  0.74527309  0.51044597  0.50653255  1
  Pb  Pb123  1  0.74760132  0.48788927  0.76348428  1
  Pb  Pb124  1  0.75376592  0.74724573  -0.02067762  1
  Pb  Pb125  1  0.74364232  0.75487636  0.25226655  1
  Pb  Pb126  1  0.73916871  0.74894960  0.51476033  1
  Pb  Pb127  1  0.73317330  0.75085554  0.75883801  1
  O  O128  1  0.11987352  -0.00844706  0.16510134  1
  O  O129  1  0.12413356  -0.00107361  0.42378243  1
  O  O130  1  0.13002820  -0.00892304  0.66040026  1
  O  O131  1  0.12446190  -0.00208684  0.90478072  1
  O  O132  1  0.12000075  0.24538164  0.16165305  1
  O  O133  1  0.12286984  0.24585539  0.41731550  1
  O  O134  1  0.12432595  0.25325973  0.66135175  1
  O  O135  1  0.12717649  0.24979164  0.90465524  1
  O  O136  1  0.12229795  0.50858050  0.15845443  1
  O  O137  1  0.12197970  0.50890976  0.41461741  1
  O  O138  1  0.12982962  0.50837652  0.66731495  1
  O  O139  1  0.12695166  0.50577976  0.90653791  1
  O  O140  1  0.12134444  0.75639790  0.16512782  1
  O  O141  1  0.12210885  0.74792119  0.42191857  1
  O  O142  1  0.13515818  0.74251113  0.66853346  1
  O  O143  1  0.12937250  0.74448258  0.90694558  1
  O  O144  1  0.37792244  -0.00202871  0.16949314  1
  O  O145  1  0.37497208  0.00673752  0.41831790  1
  O  O146  1  0.37392811  -0.00480070  0.65399050  1
  O  O147  1  0.37505432  -0.00562425  0.90352237  1
  O  O148  1  0.37716602  0.24658186  0.16294320  1
  O  O149  1  0.37640268  0.24320780  0.41516860  1
  O  O150  1  0.38057460  0.26198284  0.66430004  1
  O  O151  1  0.37215777  0.25513817  0.90512519  1
  O  O152  1  0.37561914  0.50459056  0.16130921  1
  O  O153  1  0.37546980  0.50875887  0.41772462  1
  O  O154  1  0.37851623  0.49601408  0.66807510  1
  O  O155  1  0.37388702  0.49293570  0.91214492  1
  O  O156  1  0.37579959  0.75075950  0.16863755  1
  O  O157  1  0.37448062  0.74341759  0.41946103  1
  O  O158  1  0.37304286  0.74262877  0.66080433  1
  O  O159  1  0.37173947  0.75577142  0.90826935  1
  O  O160  1  0.63047165  -0.00374114  0.16665407  1
  O  O161  1  0.62584971  0.00781934  0.42163192  1
  O  O162  1  0.62397202  0.00628182  0.65956212  1
  O  O163  1  0.62310223  -0.00176594  0.91150159  1
  O  O164  1  0.63121331  0.24007821  0.15730377  1
  O  O165  1  0.62557936  0.24224094  0.41731684  1
  O  O166  1  0.62592631  0.25217827  0.66556104  1
  O  O167  1  0.62513863  0.24590163  0.91323556  1
  O  O168  1  0.62841048  0.50777291  0.15349152  1
  O  O169  1  0.62866646  0.50707275  0.41520448  1
  O  O170  1  0.62615237  0.49241507  0.66609943  1
  O  O171  1  0.62158574  0.49993957  0.90758625  1
  O  O172  1  0.62804968  0.75594317  0.16360726  1
  O  O173  1  0.62797979  0.74356719  0.42083847  1
  O  O174  1  0.62222965  0.74908283  0.66840562  1
  O  O175  1  0.62333654  0.75275035  0.90244607  1
  O  O176  1  0.87214704  -0.00278892  0.17067373  1
  O  O177  1  0.87550137  -0.00169399  0.42580684  1
  O  O178  1  0.87802053  -0.00508992  0.66055128  1
  O  O179  1  0.87761239  0.00471180  0.90170325  1
  O  O180  1  0.87142738  0.23937273  0.15821494  1
  O  O181  1  0.87480961  0.25165067  0.42157516  1
  O  O182  1  0.87203804  0.25750396  0.66202028  1
  O  O183  1  0.87476647  0.24085414  0.90469805  1
  O  O184  1  0.87323694  0.50547408  0.16129562  1
  O  O185  1  0.87470989  0.50347410  0.42030775  1
  O  O186  1  0.87282914  0.49837800  0.67119917  1
  O  O187  1  0.87904110  0.50188137  0.90394017  1
  O  O188  1  0.87430061  0.75638053  0.16733049  1
  O  O189  1  0.87690090  0.74854777  0.42520847  1
  O  O190  1  0.87942031  0.74493786  0.66892519  1
  O  O191  1  0.87809050  0.75031160  0.89884975  1
  O  O192  1  -0.01017457  0.11704958  0.16327026  1
  O  O193  1  -0.00001429  0.12312294  0.42365203  1
  O  O194  1  -0.00165214  0.12286562  0.66114073  1
  O  O195  1  -0.00650320  0.12399883  0.90435186  1
  O  O196  1  -0.00365757  0.37534524  0.16421538  1
  O  O197  1  -0.00513840  0.37713908  0.42142289  1
  O  O198  1  -0.00709363  0.38001369  0.66345291  1
  O  O199  1  0.00250297  0.37467338  0.90538880  1
  O  O200  1  0.00606121  0.63208392  0.16516921  1
  O  O201  1  0.00181986  0.62710569  0.41986404  1
  O  O202  1  0.00958517  0.62577749  0.66523488  1
  O  O203  1  0.00962422  0.62660491  0.90555694  1
  O  O204  1  -0.00058476  0.87557587  0.16619464  1
  O  O205  1  0.00022002  0.87443997  0.42799752  1
  O  O206  1  0.00998474  0.86732881  0.66461173  1
  O  O207  1  0.00173695  0.87329136  0.90006433  1
  O  O208  1  0.24727677  0.11921943  0.16449563  1
  O  O209  1  0.25287090  0.12482523  0.41654555  1
  O  O210  1  0.25056543  0.12618080  0.66414547  1
  O  O211  1  0.25214529  0.12273375  0.90542119  1
  O  O212  1  0.24800804  0.37564861  0.16135657  1
  O  O213  1  0.25024442  0.37684475  0.41562319  1
  O  O214  1  0.25929477  0.37861511  0.65981025  1
  O  O215  1  0.25357026  0.37644814  0.90848675  1
  O  O216  1  0.24000627  0.63246556  0.16245706  1
  O  O217  1  0.24335433  0.62764871  0.41291983  1
  O  O218  1  0.25466272  0.61968709  0.66759677  1
  O  O219  1  0.24473422  0.62392479  0.91377420  1
  O  O220  1  0.24146769  0.87485798  0.16031518  1
  O  O221  1  0.24539502  0.87257091  0.42014448  1
  O  O222  1  0.25796881  0.86843841  0.66585912  1
  O  O223  1  0.25506250  0.87535287  0.90708345  1
  O  O224  1  0.51241581  0.11816473  0.16041972  1
  O  O225  1  0.50127838  0.12421526  0.41530797  1
  O  O226  1  0.50732213  0.12888113  0.66321880  1
  O  O227  1  0.49664730  0.12477504  0.91018081  1
  O  O228  1  0.50389651  0.37459139  0.16070846  1
  O  O229  1  0.50159073  0.37695014  0.41942195  1
  O  O230  1  0.50341351  0.37586504  0.66552746  1
  O  O231  1  0.49245139  0.37246052  0.90877067  1
  O  O232  1  0.51044821  0.63196201  0.15949926  1
  O  O233  1  0.50525983  0.62566084  0.41081891  1
  O  O234  1  0.49083934  0.62015605  0.66466719  1
  O  O235  1  0.49823198  0.62587344  0.91280898  1
  O  O236  1  0.50946445  0.87599404  0.16241503  1
  O  O237  1  0.50004164  0.87518560  0.42193072  1
  O  O238  1  0.48702191  0.86979096  0.66341649  1
  O  O239  1  0.49193087  0.87442690  0.90479676  1
  O  O240  1  0.75047851  0.11793045  0.16849587  1
  O  O241  1  0.74610096  0.12447967  0.42046080  1
  O  O242  1  0.74453000  0.12664335  0.66408231  1
  O  O243  1  0.75767578  0.12115283  0.90463564  1
  O  O244  1  0.75085322  0.37371142  0.16263608  1
  O  O245  1  0.75337305  0.37588209  0.42002832  1
  O  O246  1  0.74766116  0.37545030  0.66725031  1
  O  O247  1  0.75189563  0.37373220  0.90994204  1
  O  O248  1  0.74249123  0.63237019  0.16377613  1
  O  O249  1  0.75011051  0.62671627  0.42093346  1
  O  O250  1  0.75299190  0.62500362  0.66997548  1
  O  O251  1  0.74963543  0.62563653  0.89711017  1
  O  O252  1  0.74866618  0.87559270  0.16694193  1
  O  O253  1  0.75546045  0.87465043  0.42480583  1
  O  O254  1  0.75299660  0.87194467  0.66146945  1
  O  O255  1  0.75258758  0.87739382  0.89726314  1
  O  O256  1  0.12305244  0.11621751  0.03088359  1
  O  O257  1  0.12031217  0.11862350  0.30472088  1
  O  O258  1  0.13095232  0.12480342  0.53642971  1
  O  O259  1  0.12572506  0.12232754  0.77685175  1
  O  O260  1  0.12317844  0.37358103  0.03184691  1
  O  O261  1  0.11570039  0.37503296  0.28851792  1
  O  O262  1  0.12119243  0.38417080  0.54263498  1
  O  O263  1  0.12680617  0.37415475  0.77480356  1
  O  O264  1  0.12262844  0.62856632  0.04608497  1
  O  O265  1  0.11905037  0.63159009  0.30189383  1
  O  O266  1  0.12598457  0.62508435  0.55158797  1
  O  O267  1  0.13359091  0.62413186  0.79168671  1
  O  O268  1  0.12052564  0.87409255  0.04656205  1
  O  O269  1  0.12184604  0.87568973  0.30464470  1
  O  O270  1  0.13137109  0.86447408  0.55890701  1
  O  O271  1  0.13550432  0.86935769  0.77331768  1
  O  O272  1  0.37439232  0.11724841  0.03292698  1
  O  O273  1  0.37551800  0.12170455  0.30208626  1
  O  O274  1  0.37293273  0.13365737  0.54170787  1
  O  O275  1  0.37921206  0.12259529  0.77379262  1
  O  O276  1  0.37201607  0.37421114  0.03090961  1
  O  O277  1  0.38187643  0.38059199  0.28702106  1
  O  O278  1  0.37866730  0.37954276  0.54803602  1
  O  O279  1  0.37368679  0.37831441  0.79425926  1
  O  O280  1  0.37289371  0.63602995  0.03063918  1
  O  O281  1  0.37276425  0.62807471  0.29714574  1
  O  O282  1  0.37082595  0.62073681  0.55126049  1
  O  O283  1  0.37632137  0.61724440  0.78865422  1
  O  O284  1  0.37594913  0.87319319  0.03547830  1
  O  O285  1  0.37931906  0.87257141  0.29115421  1
  O  O286  1  0.37251596  0.87236216  0.54591149  1
  O  O287  1  0.37210497  0.87380997  0.79065463  1
  O  O288  1  0.63015572  0.11771160  0.04660289  1
  O  O289  1  0.62817029  0.12199848  0.30238679  1
  O  O290  1  0.62674258  0.12979603  0.54985366  1
  O  O291  1  0.62113139  0.11819950  0.78179198  1
  O  O292  1  0.62693597  0.37253013  0.02794017  1
  O  O293  1  0.62806165  0.36985036  0.28801173  1
  O  O294  1  0.62370906  0.37546649  0.55291555  1
  O  O295  1  0.62922535  0.36804352  0.78600083  1
  O  O296  1  0.62887835  0.63073142  0.04302547  1
  O  O297  1  0.63006683  0.62949723  0.30148856  1
  O  O298  1  0.63048896  0.62506547  0.54633704  1
  O  O299  1  0.61391392  0.62549332  0.77457498  1
  O  O300  1  0.62941398  0.87575534  0.04864852  1
  O  O301  1  0.63212519  0.87442969  0.29558950  1
  O  O302  1  0.61936538  0.86858163  0.54277358  1
  O  O303  1  0.62458913  0.88255779  0.77221596  1
  O  O304  1  0.87009952  0.11752720  0.04850063  1
  O  O305  1  0.87453201  0.12315160  0.30959614  1
  O  O306  1  0.86858823  0.12489540  0.53600738  1
  O  O307  1  0.87668447  0.12469181  0.78595370  1
  O  O308  1  0.87792629  0.37680149  0.02744209  1
  O  O309  1  0.87378825  0.37697688  0.30160920  1
  O  O310  1  0.87185536  0.38112326  0.55442287  1
  O  O311  1  0.86837530  0.37616379  0.78175654  1
  O  O312  1  0.87805600  0.63447467  0.03242528  1
  O  O313  1  0.87426212  0.62727406  0.30241880  1
  O  O314  1  0.87608380  0.62130750  0.56492770  1
  O  O315  1  0.88796555  0.62214188  0.77180659  1
  O  O316  1  0.87483535  0.87727474  0.04584647  1
  O  O317  1  0.87676799  0.87449310  0.30709530  1
  O  O318  1  0.88155914  0.86718034  0.56229373  1
  O  O319  1  0.88253482  0.87344510  0.76613910  1
