# generated using pymatgen
data_VFe(PbO3)2
_symmetry_space_group_name_H-M   'P 1'
_cell_length_a   15.38066823
_cell_length_b   15.37478460
_cell_length_c   18.52863231
_cell_angle_alpha   90.01851820
_cell_angle_beta   89.98007261
_cell_angle_gamma   90.00876406
_symmetry_Int_Tables_number   1
_chemical_formula_structural   VFe(PbO3)2
_chemical_formula_sum   'V32 Fe32 Pb64 O192'
_cell_volume   4381.54779642
_cell_formula_units_Z   32
loop_
 _symmetry_equiv_pos_site_id
 _symmetry_equiv_pos_as_xyz
  1  'x, y, z'
loop_
 _atom_site_type_symbol
 _atom_site_label
 _atom_site_symmetry_multiplicity
 _atom_site_fract_x
 _atom_site_fract_y
 _atom_site_fract_z
 _atom_site_occupancy
  V  V0  1  0.62493656  0.11987002  0.38906615  1
  V  V1  1  0.12424854  0.37417634  0.64209652  1
  V  V2  1  0.37496538  0.87449142  0.39456763  1
  V  V3  1  0.12562034  0.12629963  0.63748120  1
  V  V4  1  0.87418376  0.62448764  0.64433477  1
  V  V5  1  0.37676055  0.37481884  0.63731241  1
  V  V6  1  0.87428332  0.12330745  0.13835762  1
  V  V7  1  0.12518223  0.87382507  0.39550636  1
  V  V8  1  0.12529292  0.12482811  0.89628909  1
  V  V9  1  0.62519247  0.62318098  0.64556044  1
  V  V10  1  0.12661241  0.87607584  0.13544080  1
  V  V11  1  0.87278055  0.37501536  0.64029170  1
  V  V12  1  0.87553105  0.12678777  0.64218935  1
  V  V13  1  0.87543914  0.37181076  0.38697370  1
  V  V14  1  0.37592919  0.12334077  0.13966501  1
  V  V15  1  0.37597617  0.12841591  0.63816935  1
  V  V16  1  0.87452849  0.39082729  0.13643554  1
  V  V17  1  0.62591861  0.87569869  0.65022679  1
  V  V18  1  0.87544778  0.87963253  0.88877099  1
  V  V19  1  0.12462150  0.87300962  0.88467212  1
  V  V20  1  0.12425661  0.62457027  0.13600860  1
  V  V21  1  0.87871510  0.37169103  0.88756998  1
  V  V22  1  0.37483166  0.37229732  0.88975534  1
  V  V23  1  0.62635172  0.62501046  0.13414764  1
  V  V24  1  0.87399903  0.87515145  0.64356067  1
  V  V25  1  0.87452916  0.62387986  0.39114658  1
  V  V26  1  0.12441904  0.12225834  0.38778169  1
  V  V27  1  0.62723933  0.37513719  0.89006786  1
  V  V28  1  0.62395324  0.87680425  0.13439124  1
  V  V29  1  0.37488441  0.62392681  0.39176991  1
  V  V30  1  0.87377600  0.87354526  0.39179320  1
  V  V31  1  0.37509727  0.12849881  0.88943375  1
  Fe  Fe32  1  0.12453721  0.62688427  0.39236714  1
  Fe  Fe33  1  0.12278212  0.37325375  0.14113486  1
  Fe  Fe34  1  0.62373807  0.87597959  0.87810868  1
  Fe  Fe35  1  0.37433407  0.37263103  0.37963657  1
  Fe  Fe36  1  0.62547708  0.12643481  0.63815894  1
  Fe  Fe37  1  0.12533469  0.62241923  0.87995280  1
  Fe  Fe38  1  0.62667688  0.37503989  0.63431487  1
  Fe  Fe39  1  0.62394234  0.87195975  0.38749751  1
  Fe  Fe40  1  0.62386360  0.62526198  0.88190951  1
  Fe  Fe41  1  0.87717942  0.12896197  0.88550451  1
  Fe  Fe42  1  0.87327871  0.63241326  0.12991848  1
  Fe  Fe43  1  0.37517160  0.62410027  0.64056694  1
  Fe  Fe44  1  0.37469076  0.12054111  0.38393524  1
  Fe  Fe45  1  0.12328141  0.62447672  0.63777695  1
  Fe  Fe46  1  0.87449869  0.12011361  0.38463267  1
  Fe  Fe47  1  0.12547347  0.12312326  0.13407922  1
  Fe  Fe48  1  0.37190452  0.87900134  0.87673023  1
  Fe  Fe49  1  0.62427291  0.62942675  0.38867408  1
  Fe  Fe50  1  0.62662752  0.37651760  0.38558443  1
  Fe  Fe51  1  0.12388699  0.37629610  0.38119341  1
  Fe  Fe52  1  0.62811753  0.37340108  0.13843530  1
  Fe  Fe53  1  0.37656317  0.37829581  0.13985984  1
  Fe  Fe54  1  0.37380383  0.87125454  0.13252804  1
  Fe  Fe55  1  0.12078145  0.87801276  0.63605729  1
  Fe  Fe56  1  0.37458682  0.62304365  0.87940559  1
  Fe  Fe57  1  0.87664018  0.62262742  0.88662255  1
  Fe  Fe58  1  0.37437510  0.87790840  0.64747923  1
  Fe  Fe59  1  0.12702226  0.37237650  0.88394003  1
  Fe  Fe60  1  0.87493684  0.87298689  0.13058445  1
  Fe  Fe61  1  0.62481023  0.12295738  0.12976084  1
  Fe  Fe62  1  0.62467662  0.12694445  0.89149492  1
  Fe  Fe63  1  0.37671010  0.62760003  0.13217753  1
  Pb  Pb64  1  -0.00165072  -0.00101528  0.00228007  1
  Pb  Pb65  1  -0.00564319  0.00120485  0.24873206  1
  Pb  Pb66  1  0.00318860  -0.00482781  0.50293559  1
  Pb  Pb67  1  -0.00723945  0.00790794  0.75240529  1
  Pb  Pb68  1  0.01062264  0.25119603  0.00753590  1
  Pb  Pb69  1  0.00087933  0.24809773  0.24750300  1
  Pb  Pb70  1  -0.00047030  0.24834955  0.49485089  1
  Pb  Pb71  1  0.00063457  0.25459326  0.75281825  1
  Pb  Pb72  1  0.00870658  0.49967160  -0.00561364  1
  Pb  Pb73  1  0.01525116  0.50700221  0.25653458  1
  Pb  Pb74  1  0.00604656  0.50483185  0.50200602  1
  Pb  Pb75  1  0.00297858  0.50358751  0.75375110  1
  Pb  Pb76  1  -0.00724314  0.74765503  -0.00191893  1
  Pb  Pb77  1  0.00204172  0.74727689  0.24671124  1
  Pb  Pb78  1  0.00830732  0.74977236  0.50659419  1
  Pb  Pb79  1  0.00236904  0.74196579  0.75138781  1
  Pb  Pb80  1  0.25500110  -0.00303914  0.00059609  1
  Pb  Pb81  1  0.25521622  0.00312486  0.24950686  1
  Pb  Pb82  1  0.25219203  -0.01349189  0.50933315  1
  Pb  Pb83  1  0.25072468  -0.00218676  0.74818622  1
  Pb  Pb84  1  0.24267433  0.25468837  0.00825063  1
  Pb  Pb85  1  0.25217726  0.25488183  0.24716484  1
  Pb  Pb86  1  0.25353793  0.25278751  0.49055869  1
  Pb  Pb87  1  0.24643607  0.25622285  0.75147551  1
  Pb  Pb88  1  0.25480559  0.50228105  -0.00326328  1
  Pb  Pb89  1  0.25247851  0.49474914  0.24703830  1
  Pb  Pb90  1  0.24662798  0.50400534  0.49851478  1
  Pb  Pb91  1  0.24759817  0.50903377  0.75034670  1
  Pb  Pb92  1  0.26364007  0.74513498  -0.00694743  1
  Pb  Pb93  1  0.24957773  0.74478349  0.24777857  1
  Pb  Pb94  1  0.25355125  0.74247343  0.51237652  1
  Pb  Pb95  1  0.24690461  0.74794362  0.74260536  1
  Pb  Pb96  1  0.50143296  -0.00473123  -0.00730847  1
  Pb  Pb97  1  0.49669931  0.00118972  0.24791633  1
  Pb  Pb98  1  0.49502314  -0.00493264  0.50603115  1
  Pb  Pb99  1  0.50368279  -0.00373597  0.75582392  1
  Pb  Pb100  1  0.49955078  0.26325849  0.00914036  1
  Pb  Pb101  1  0.50095105  0.25568432  0.24848804  1
  Pb  Pb102  1  0.50409133  0.25105620  0.49325016  1
  Pb  Pb103  1  0.50926527  0.24595704  0.74962504  1
  Pb  Pb104  1  0.49388513  0.49762281  0.00148859  1
  Pb  Pb105  1  0.49912885  0.49541633  0.24754058  1
  Pb  Pb106  1  0.50208697  0.49556111  0.49543719  1
  Pb  Pb107  1  0.49973278  0.50722712  0.75328786  1
  Pb  Pb108  1  0.49511930  0.75050192  -0.01594738  1
  Pb  Pb109  1  0.50775518  0.75154318  0.24815387  1
  Pb  Pb110  1  0.48976367  0.74931954  0.50918544  1
  Pb  Pb111  1  0.49077978  0.74887408  0.75447431  1
  Pb  Pb112  1  0.74605923  0.00637002  -0.00450498  1
  Pb  Pb113  1  0.75218803  -0.00060152  0.24725702  1
  Pb  Pb114  1  0.74346548  0.00646611  0.50352501  1
  Pb  Pb115  1  0.74332337  0.00505474  0.75713858  1
  Pb  Pb116  1  0.74096454  0.24891321  0.00232025  1
  Pb  Pb117  1  0.74682541  0.24830362  0.24780296  1
  Pb  Pb118  1  0.73787611  0.24749294  0.50352955  1
  Pb  Pb119  1  0.74708749  0.24098008  0.75385033  1
  Pb  Pb120  1  0.75009391  0.50497208  -0.00332257  1
  Pb  Pb121  1  0.73512056  0.50580163  0.25530364  1
  Pb  Pb122  1  0.74541610  0.49555358  0.50054392  1
  Pb  Pb123  1  0.75145857  0.50740405  0.75601866  1
  Pb  Pb124  1  0.75496868  0.74933724  -0.00679360  1
  Pb  Pb125  1  0.74244937  0.75148647  0.24876426  1
  Pb  Pb126  1  0.74665642  0.75165475  0.50267720  1
  Pb  Pb127  1  0.74609269  0.74665364  0.75801689  1
  O  O128  1  0.12682952  -0.00675968  0.15811801  1
  O  O129  1  0.12237120  0.00225259  0.41790204  1
  O  O130  1  0.12072597  0.00808047  0.66419736  1
  O  O131  1  0.12529469  0.00435284  0.91610714  1
  O  O132  1  0.12032463  0.24625533  0.16775360  1
  O  O133  1  0.12006164  0.24400566  0.40896290  1
  O  O134  1  0.12379790  0.24857108  0.66887777  1
  O  O135  1  0.12734649  0.24645320  0.91828575  1
  O  O136  1  0.11930027  0.50614662  0.15946071  1
  O  O137  1  0.12250694  0.50019015  0.41750600  1
  O  O138  1  0.12254681  0.49304758  0.66163790  1
  O  O139  1  0.12487973  0.49594485  0.91170560  1
  O  O140  1  0.12544960  0.74969279  0.16196517  1
  O  O141  1  0.12368637  0.75350970  0.41978242  1
  O  O142  1  0.12031196  0.75201893  0.66209967  1
  O  O143  1  0.12456502  0.75836889  0.90027735  1
  O  O144  1  0.37418595  -0.00073863  0.16409667  1
  O  O145  1  0.37411879  -0.00494396  0.41917608  1
  O  O146  1  0.37515662  0.01346651  0.66501119  1
  O  O147  1  0.36933234  0.00899065  0.91043491  1
  O  O148  1  0.37631523  0.24136724  0.16122460  1
  O  O149  1  0.37506035  0.24549011  0.41135651  1
  O  O150  1  0.37324181  0.24853385  0.66487509  1
  O  O151  1  0.37487297  0.24922719  0.91709504  1
  O  O152  1  0.37636162  0.50605259  0.16573064  1
  O  O153  1  0.37387664  0.50652721  0.40955884  1
  O  O154  1  0.37568939  0.49009773  0.65996811  1
  O  O155  1  0.37689015  0.49020829  0.90940710  1
  O  O156  1  0.37243906  0.74915441  0.16755050  1
  O  O157  1  0.37290132  0.75407296  0.41951228  1
  O  O158  1  0.37809954  0.75059386  0.66575466  1
  O  O159  1  0.37042181  0.75241572  0.89994211  1
  O  O160  1  0.62302781  -0.00640279  0.15778574  1
  O  O161  1  0.62704821  0.00039086  0.41601295  1
  O  O162  1  0.62927248  -0.00262768  0.66497952  1
  O  O163  1  0.62519998  -0.00061382  0.91193415  1
  O  O164  1  0.62987014  0.24550693  0.16456511  1
  O  O165  1  0.62853253  0.24310927  0.40982366  1
  O  O166  1  0.62759542  0.25219459  0.66731685  1
  O  O167  1  0.62337703  0.25748408  0.91540139  1
  O  O168  1  0.62981664  0.50612287  0.15941744  1
  O  O169  1  0.62744011  0.50400462  0.41748049  1
  O  O170  1  0.62742920  0.50337135  0.66245953  1
  O  O171  1  0.62231812  0.49150083  0.91315741  1
  O  O172  1  0.62548514  0.75038271  0.15958771  1
  O  O173  1  0.62483578  0.75108313  0.42459781  1
  O  O174  1  0.62965758  0.74963703  0.66875466  1
  O  O175  1  0.62672346  0.75217491  0.90558918  1
  O  O176  1  0.87561072  -0.00224803  0.16407212  1
  O  O177  1  0.87584070  -0.00818297  0.41688324  1
  O  O178  1  0.87413208  -0.00197966  0.66559517  1
  O  O179  1  0.88229157  -0.00199793  0.91346395  1
  O  O180  1  0.87396365  0.23747402  0.16095191  1
  O  O181  1  0.87720749  0.25391178  0.40558998  1
  O  O182  1  0.87567376  0.25461558  0.66449669  1
  O  O183  1  0.87136239  0.25781290  0.91464857  1
  O  O184  1  0.87433782  0.50371403  0.15031454  1
  O  O185  1  0.87509609  0.50439400  0.41332385  1
  O  O186  1  0.87578658  0.49582826  0.66467614  1
  O  O187  1  0.87398359  0.48931182  0.91358655  1
  O  O188  1  0.87601918  0.75229352  0.16607173  1
  O  O189  1  0.87703328  0.75249264  0.41720939  1
  O  O190  1  0.87281823  0.75347863  0.66705822  1
  O  O191  1  0.88050420  0.75872145  0.90749377  1
  O  O192  1  -0.00473033  0.11762896  0.16244219  1
  O  O193  1  0.00322912  0.12220754  0.41589964  1
  O  O194  1  -0.00128147  0.12851171  0.66539072  1
  O  O195  1  0.00577429  0.12775452  0.91525687  1
  O  O196  1  -0.01432279  0.37159365  0.16553350  1
  O  O197  1  -0.00724309  0.37724134  0.41470236  1
  O  O198  1  -0.00420436  0.37247446  0.66616272  1
  O  O199  1  -0.00494695  0.37104625  0.90912910  1
  O  O200  1  0.00517211  0.62970055  0.16099218  1
  O  O201  1  -0.00872921  0.62768916  0.41936668  1
  O  O202  1  -0.00519297  0.62317518  0.66531640  1
  O  O203  1  0.00159737  0.62446135  0.91247161  1
  O  O204  1  0.00923304  0.87280157  0.16087179  1
  O  O205  1  -0.00348041  0.87469440  0.41864083  1
  O  O206  1  -0.00934261  0.87703882  0.66632035  1
  O  O207  1  0.00614433  0.88063495  0.91377953  1
  O  O208  1  0.25480905  0.12177346  0.16385132  1
  O  O209  1  0.24068546  0.12262767  0.41036237  1
  O  O210  1  0.25070068  0.12863467  0.66252020  1
  O  O211  1  0.25097686  0.12883491  0.91786003  1
  O  O212  1  0.24906534  0.37463522  0.16261568  1
  O  O213  1  0.24878546  0.37431116  0.41089544  1
  O  O214  1  0.25386476  0.37036824  0.66354815  1
  O  O215  1  0.25746883  0.37057765  0.91125336  1
  O  O216  1  0.24072083  0.62556276  0.16188017  1
  O  O217  1  0.25570513  0.62944408  0.41794725  1
  O  O218  1  0.24886284  0.62187370  0.66235818  1
  O  O219  1  0.24962008  0.62034898  0.90815563  1
  O  O220  1  0.24289428  0.87233283  0.16503868  1
  O  O221  1  0.25270999  0.87621841  0.41992718  1
  O  O222  1  0.24577741  0.88093851  0.66417119  1
  O  O223  1  0.24136320  0.88378807  0.90524601  1
  O  O224  1  0.49598271  0.12015600  0.16108832  1
  O  O225  1  0.50729674  0.12084745  0.41152545  1
  O  O226  1  0.49455025  0.12918905  0.66076360  1
  O  O227  1  0.49059889  0.12601583  0.91064830  1
  O  O228  1  0.50331735  0.37458417  0.16672079  1
  O  O229  1  0.49998052  0.37570025  0.41162318  1
  O  O230  1  0.49364900  0.37053244  0.65935550  1
  O  O231  1  0.49856464  0.37149129  0.91407071  1
  O  O232  1  0.50950048  0.62719578  0.15748466  1
  O  O233  1  0.49258534  0.62967323  0.41534789  1
  O  O234  1  0.50754398  0.62465220  0.66371818  1
  O  O235  1  0.49907672  0.62241574  0.90864112  1
  O  O236  1  0.50531009  0.87150946  0.16033914  1
  O  O237  1  0.49321751  0.87510191  0.41802741  1
  O  O238  1  0.50849086  0.87741193  0.66563768  1
  O  O239  1  0.49667580  0.87967388  0.90405303  1
  O  O240  1  0.75412830  0.11619195  0.16111002  1
  O  O241  1  0.74714822  0.12122098  0.41474436  1
  O  O242  1  0.75529648  0.12628688  0.66614772  1
  O  O243  1  0.75301484  0.12625056  0.91429903  1
  O  O244  1  0.76254373  0.37222189  0.16655114  1
  O  O245  1  0.75924908  0.37756279  0.41425595  1
  O  O246  1  0.75716090  0.37592909  0.66280231  1
  O  O247  1  0.74681217  0.37518684  0.90978665  1
  O  O248  1  0.74415884  0.62933517  0.16069225  1
  O  O249  1  0.75883459  0.62893275  0.41811899  1
  O  O250  1  0.74936909  0.62463437  0.66963785  1
  O  O251  1  0.75020687  0.62274408  0.91196064  1
  O  O252  1  0.74240494  0.87339873  0.15758778  1
  O  O253  1  0.75671975  0.87286236  0.41530528  1
  O  O254  1  0.75463860  0.87525110  0.67148656  1
  O  O255  1  0.75889252  0.87871453  0.90445912  1
  O  O256  1  0.12497244  0.13323479  0.03481255  1
  O  O257  1  0.12077613  0.11768747  0.29712559  1
  O  O258  1  0.12335627  0.12921296  0.54551848  1
  O  O259  1  0.12745415  0.12616708  0.80489194  1
  O  O260  1  0.11925886  0.36604117  0.03986115  1
  O  O261  1  0.11742100  0.38155594  0.28095301  1
  O  O262  1  0.12255834  0.36857426  0.55067020  1
  O  O263  1  0.12527979  0.36629148  0.78380423  1
  O  O264  1  0.12542377  0.62565992  0.04495268  1
  O  O265  1  0.11750045  0.62292220  0.29232117  1
  O  O266  1  0.12183153  0.62356905  0.53568226  1
  O  O267  1  0.12078099  0.61950540  0.77856075  1
  O  O268  1  0.12919425  0.87222175  0.04471266  1
  O  O269  1  0.12564712  0.87598586  0.30473449  1
  O  O270  1  0.12028243  0.88178207  0.53527100  1
  O  O271  1  0.11932279  0.88310182  0.79285146  1
  O  O272  1  0.37372439  0.12095013  0.04873098  1
  O  O273  1  0.37563515  0.11229476  0.28502518  1
  O  O274  1  0.37469554  0.12717533  0.54696072  1
  O  O275  1  0.37129043  0.13134255  0.79856915  1
  O  O276  1  0.38538538  0.37801338  0.03852293  1
  O  O277  1  0.37625373  0.37449535  0.27917447  1
  O  O278  1  0.37304201  0.37091688  0.54631671  1
  O  O279  1  0.37726443  0.36869399  0.79879953  1
  O  O280  1  0.36803190  0.62671443  0.03179439  1
  O  O281  1  0.37267738  0.63066720  0.30119280  1
  O  O282  1  0.37442392  0.63088985  0.53937483  1
  O  O283  1  0.38003531  0.61464821  0.77738728  1
  O  O284  1  0.36738901  0.87378933  0.03295339  1
  O  O285  1  0.37343783  0.87382055  0.30385320  1
  O  O286  1  0.37826667  0.88405951  0.54553447  1
  O  O287  1  0.37724234  0.88691548  0.77502823  1
  O  O288  1  0.62944713  0.12493117  0.02966690  1
  O  O289  1  0.62746915  0.11714435  0.29802418  1
  O  O290  1  0.63254535  0.12679202  0.53824298  1
  O  O291  1  0.62741193  0.13139156  0.78923503  1
  O  O292  1  0.62363247  0.37014120  0.03828576  1
  O  O293  1  0.63383035  0.37987219  0.28523542  1
  O  O294  1  0.63078610  0.37130958  0.53403009  1
  O  O295  1  0.62361927  0.37350049  0.79881933  1
  O  O296  1  0.62869833  0.62509311  0.04314020  1
  O  O297  1  0.63172835  0.62801955  0.28893147  1
  O  O298  1  0.62969868  0.62774505  0.55437958  1
  O  O299  1  0.62828347  0.61701758  0.78122251  1
  O  O300  1  0.62227918  0.87512698  0.04340626  1
  O  O301  1  0.62337506  0.86482343  0.28841947  1
  O  O302  1  0.63149210  0.87289981  0.55881546  1
  O  O303  1  0.62793026  0.88232802  0.77721241  1
  O  O304  1  0.87588323  0.12120304  0.04679692  1
  O  O305  1  0.87464622  0.11105517  0.28607579  1
  O  O306  1  0.87585329  0.12637217  0.55072926  1
  O  O307  1  0.87890749  0.12594843  0.78552969  1
  O  O308  1  0.87381264  0.37690726  0.04551836  1
  O  O309  1  0.87509712  0.37989749  0.29672536  1
  O  O310  1  0.87556258  0.37403834  0.54923548  1
  O  O311  1  0.87676609  0.37139757  0.79638124  1
  O  O312  1  0.87247100  0.63742317  0.02944876  1
  O  O313  1  0.87494916  0.62624255  0.30053759  1
  O  O314  1  0.87142659  0.62532520  0.55315136  1
  O  O315  1  0.87430705  0.61936245  0.78523838  1
  O  O316  1  0.88030615  0.87254862  0.03109576  1
  O  O317  1  0.87625289  0.87375470  0.30087447  1
  O  O318  1  0.87161920  0.87487415  0.55278898  1
  O  O319  1  0.88280035  0.88197576  0.79772688  1
