# generated using pymatgen
data_VFe(PbO3)2
_symmetry_space_group_name_H-M   'P 1'
_cell_length_a   15.38742170
_cell_length_b   15.39507797
_cell_length_c   18.50166329
_cell_angle_alpha   90.00543984
_cell_angle_beta   89.99866502
_cell_angle_gamma   89.97032952
_symmetry_Int_Tables_number   1
_chemical_formula_structural   VFe(PbO3)2
_chemical_formula_sum   'V32 Fe32 Pb64 O192'
_cell_volume   4382.86871147
_cell_formula_units_Z   32
loop_
 _symmetry_equiv_pos_site_id
 _symmetry_equiv_pos_as_xyz
  1  'x, y, z'
loop_
 _atom_site_type_symbol
 _atom_site_label
 _atom_site_symmetry_multiplicity
 _atom_site_fract_x
 _atom_site_fract_y
 _atom_site_fract_z
 _atom_site_occupancy
  V  V0  1  0.37704826  0.62558678  0.88415222  1
  V  V1  1  0.87820138  0.12643748  0.63791269  1
  V  V2  1  0.12498563  0.62423444  0.39093975  1
  V  V3  1  0.87408226  0.62294373  0.13545973  1
  V  V4  1  0.87789622  0.37469463  0.63965299  1
  V  V5  1  0.12582097  0.87752976  0.64167251  1
  V  V6  1  0.62314565  0.62392600  0.39928535  1
  V  V7  1  0.62491763  0.87428388  0.14096153  1
  V  V8  1  0.12591815  0.87894937  0.88799215  1
  V  V9  1  0.12563825  0.62761316  0.13463467  1
  V  V10  1  0.87595902  0.62257236  0.39833036  1
  V  V11  1  0.62522033  0.37493477  0.13898919  1
  V  V12  1  0.37320475  0.62417127  0.39321109  1
  V  V13  1  0.12293056  0.87585973  0.13972152  1
  V  V14  1  0.37009058  0.62468776  0.64049354  1
  V  V15  1  0.87554442  0.12435297  0.89169408  1
  V  V16  1  0.37482049  0.37698039  0.39324203  1
  V  V17  1  0.12653859  0.12334248  0.64081743  1
  V  V18  1  0.62440257  0.12717175  0.89051927  1
  V  V19  1  0.87713139  0.87757760  0.64282919  1
  V  V20  1  0.87443265  0.87196702  0.13911574  1
  V  V21  1  0.62715064  0.87304870  0.39561594  1
  V  V22  1  0.62462771  0.37848768  0.88376664  1
  V  V23  1  0.62702312  0.12739745  0.39023692  1
  V  V24  1  0.12324513  0.87054006  0.39049816  1
  V  V25  1  0.37418148  0.87632131  0.63806013  1
  V  V26  1  0.87391843  0.37472861  0.39107201  1
  V  V27  1  0.62439882  0.87794899  0.88387385  1
  V  V28  1  0.62581371  0.62561618  0.13737866  1
  V  V29  1  0.12334742  0.61789383  0.65911900  1
  V  V30  1  0.87474417  0.87096410  0.39185720  1
  V  V31  1  0.12327382  0.12570398  0.13887396  1
  Fe  Fe32  1  0.62547118  0.87965468  0.63173454  1
  Fe  Fe33  1  0.38002478  0.37337107  0.88304792  1
  Fe  Fe34  1  0.12580844  0.37290006  0.88095623  1
  Fe  Fe35  1  0.37699574  0.12437528  0.13533308  1
  Fe  Fe36  1  0.37649015  0.86863060  0.38618169  1
  Fe  Fe37  1  0.12259556  0.12851008  0.38082307  1
  Fe  Fe38  1  0.87378490  0.37780103  0.12771698  1
  Fe  Fe39  1  0.12406398  0.37071631  0.64687448  1
  Fe  Fe40  1  0.12585766  0.12294223  0.88480591  1
  Fe  Fe41  1  0.62693602  0.12385737  0.63102867  1
  Fe  Fe42  1  0.37548029  0.12346928  0.88669123  1
  Fe  Fe43  1  0.62252386  0.62769595  0.64259351  1
  Fe  Fe44  1  0.62149972  0.62711243  0.87457190  1
  Fe  Fe45  1  0.87271740  0.12392556  0.14177984  1
  Fe  Fe46  1  0.12399528  0.37872798  0.13141180  1
  Fe  Fe47  1  0.87230225  0.62706036  0.87280958  1
  Fe  Fe48  1  0.62491753  0.12263761  0.13670264  1
  Fe  Fe49  1  0.62739939  0.37856098  0.39771807  1
  Fe  Fe50  1  0.37226976  0.37215544  0.63559597  1
  Fe  Fe51  1  0.12744726  0.62819923  0.87337030  1
  Fe  Fe52  1  0.37403300  0.12274868  0.39507097  1
  Fe  Fe53  1  0.86972077  0.37183125  0.89154106  1
  Fe  Fe54  1  0.37466572  0.37759131  0.13228662  1
  Fe  Fe55  1  0.87270492  0.87924291  0.88106871  1
  Fe  Fe56  1  0.62594300  0.37186880  0.62779280  1
  Fe  Fe57  1  0.87583678  0.12376752  0.38235393  1
  Fe  Fe58  1  0.37448625  0.87189177  0.14074011  1
  Fe  Fe59  1  0.37719284  0.87785149  0.88380375  1
  Fe  Fe60  1  0.12364857  0.38022569  0.38482726  1
  Fe  Fe61  1  0.37828783  0.62330689  0.13543838  1
  Fe  Fe62  1  0.87815324  0.62491304  0.64799371  1
  Fe  Fe63  1  0.37402665  0.12332311  0.62446396  1
  Pb  Pb64  1  -0.00642690  0.00534962  0.00181525  1
  Pb  Pb65  1  0.00043029  0.00697210  0.25434371  1
  Pb  Pb66  1  -0.00168352  0.00159994  0.49585824  1
  Pb  Pb67  1  0.00186146  0.00141541  0.75494559  1
  Pb  Pb68  1  0.00664332  0.26430937  -0.00118686  1
  Pb  Pb69  1  -0.00053998  0.25273553  0.24403541  1
  Pb  Pb70  1  0.00847392  0.25440964  0.49562252  1
  Pb  Pb71  1  0.00949339  0.24507746  0.75808288  1
  Pb  Pb72  1  0.00037243  0.49963267  -0.01465993  1
  Pb  Pb73  1  0.00176496  0.49304755  0.24597605  1
  Pb  Pb74  1  0.00472297  0.49719039  0.50885736  1
  Pb  Pb75  1  -0.01034072  0.47685209  0.76643411  1
  Pb  Pb76  1  -0.00180374  0.74664292  -0.01455029  1
  Pb  Pb77  1  -0.00066457  0.74610767  0.24845364  1
  Pb  Pb78  1  -0.00582216  0.74120264  0.50965584  1
  Pb  Pb79  1  -0.00362332  0.75082314  0.75610433  1
  Pb  Pb80  1  0.26164334  0.00378264  -0.00028193  1
  Pb  Pb81  1  0.25534779  0.01208641  0.25636369  1
  Pb  Pb82  1  0.25405887  0.00322746  0.49385410  1
  Pb  Pb83  1  0.25863878  0.00576016  0.75448757  1
  Pb  Pb84  1  0.25212646  0.25425840  -0.00931999  1
  Pb  Pb85  1  0.24934505  0.24951387  0.24501729  1
  Pb  Pb86  1  0.25023874  0.25072419  0.49733928  1
  Pb  Pb87  1  0.26327193  0.24665389  0.75126997  1
  Pb  Pb88  1  0.24488373  0.49275504  -0.00970472  1
  Pb  Pb89  1  0.24828988  0.49329816  0.24514209  1
  Pb  Pb90  1  0.24547280  0.48644534  0.51037243  1
  Pb  Pb91  1  0.25307206  0.48236743  0.75789193  1
  Pb  Pb92  1  0.25910165  0.75263439  -0.00196330  1
  Pb  Pb93  1  0.25595489  0.75250396  0.25029291  1
  Pb  Pb94  1  0.24825907  0.74394270  0.50320164  1
  Pb  Pb95  1  0.25109963  0.75556313  0.75422576  1
  Pb  Pb96  1  0.49875064  0.00406066  0.00163648  1
  Pb  Pb97  1  0.48496764  0.00601039  0.25434738  1
  Pb  Pb98  1  0.50364958  0.00168363  0.49813834  1
  Pb  Pb99  1  0.49214781  0.00747729  0.74443494  1
  Pb  Pb100  1  0.49122722  0.24786718  0.00047456  1
  Pb  Pb101  1  0.49480333  0.24694951  0.24839776  1
  Pb  Pb102  1  0.49715563  0.25247351  0.50292819  1
  Pb  Pb103  1  0.49708321  0.24585250  0.73697940  1
  Pb  Pb104  1  0.48727320  0.50335620  0.00096851  1
  Pb  Pb105  1  0.50503819  0.49402505  0.25244238  1
  Pb  Pb106  1  0.49826281  0.49330043  0.50871944  1
  Pb  Pb107  1  0.50192021  0.49170939  0.74164804  1
  Pb  Pb108  1  0.49026059  0.75059645  0.00016514  1
  Pb  Pb109  1  0.49581893  0.75188007  0.25231726  1
  Pb  Pb110  1  0.50951515  0.74910670  0.50751551  1
  Pb  Pb111  1  0.50394068  0.75306412  0.74734933  1
  Pb  Pb112  1  0.74786355  0.00742003  0.00544879  1
  Pb  Pb113  1  0.75375466  0.00361427  0.25216307  1
  Pb  Pb114  1  0.74369641  0.00046057  0.50192012  1
  Pb  Pb115  1  0.75063257  -0.00227389  0.74800212  1
  Pb  Pb116  1  0.75074402  0.24082522  0.00611959  1
  Pb  Pb117  1  0.75318055  0.24961537  0.24757890  1
  Pb  Pb118  1  0.74252683  0.24786900  0.50214337  1
  Pb  Pb119  1  0.75287449  0.25576172  0.74775324  1
  Pb  Pb120  1  0.75389202  0.50090808  -0.01065999  1
  Pb  Pb121  1  0.74491277  0.49296690  0.25321663  1
  Pb  Pb122  1  0.75228745  0.51127941  0.51261253  1
  Pb  Pb123  1  0.74768885  0.50626737  0.74502719  1
  Pb  Pb124  1  0.74894755  0.74831955  -0.01394853  1
  Pb  Pb125  1  0.74983055  0.74693149  0.25039928  1
  Pb  Pb126  1  0.74787023  0.74426619  0.51277609  1
  Pb  Pb127  1  0.74787140  0.74516994  0.74780409  1
  O  O128  1  0.12089768  -0.00745238  0.16182970  1
  O  O129  1  0.12090766  -0.01251630  0.40931680  1
  O  O130  1  0.12208350  0.00054748  0.66666930  1
  O  O131  1  0.12294601  -0.00587213  0.91755466  1
  O  O132  1  0.12307705  0.24327036  0.15562895  1
  O  O133  1  0.12286481  0.25510798  0.41043556  1
  O  O134  1  0.11992113  0.23898873  0.66220892  1
  O  O135  1  0.12363852  0.24785156  0.91233420  1
  O  O136  1  0.12197982  0.51086055  0.15825179  1
  O  O137  1  0.12429360  0.50532231  0.41985420  1
  O  O138  1  0.12479751  0.50402516  0.66895649  1
  O  O139  1  0.12716186  0.50383687  0.90045724  1
  O  O140  1  0.11891002  0.74757537  0.16522672  1
  O  O141  1  0.12186969  0.74763497  0.42182050  1
  O  O142  1  0.12544903  0.76548247  0.66878311  1
  O  O143  1  0.12675406  0.75771676  0.90904769  1
  O  O144  1  0.37391954  -0.00256058  0.16551397  1
  O  O145  1  0.37404310  -0.00721060  0.41391461  1
  O  O146  1  0.36953302  -0.00385612  0.65754570  1
  O  O147  1  0.37912644  -0.00122167  0.91768037  1
  O  O148  1  0.37532460  0.25137775  0.16514202  1
  O  O149  1  0.37483494  0.25871023  0.41017227  1
  O  O150  1  0.37038736  0.24494890  0.65798001  1
  O  O151  1  0.38102097  0.24911206  0.91110079  1
  O  O152  1  0.37587443  0.50118724  0.16666605  1
  O  O153  1  0.37595965  0.50274093  0.42155737  1
  O  O154  1  0.37063926  0.50884614  0.66022646  1
  O  O155  1  0.37962265  0.50629711  0.90721431  1
  O  O156  1  0.37560517  0.74610687  0.17056842  1
  O  O157  1  0.37550834  0.74357663  0.42026256  1
  O  O158  1  0.37008269  0.75681072  0.66350541  1
  O  O159  1  0.37763526  0.74861375  0.91003470  1
  O  O160  1  0.62910588  -0.01118636  0.16322500  1
  O  O161  1  0.62924144  0.00110956  0.41327983  1
  O  O162  1  0.62939473  0.00087926  0.66462911  1
  O  O163  1  0.62679379  0.00139948  0.91337487  1
  O  O164  1  0.62594676  0.25774419  0.16157824  1
  O  O165  1  0.62829639  0.24561822  0.41075059  1
  O  O166  1  0.63000303  0.24822341  0.66042336  1
  O  O167  1  0.62676198  0.24387891  0.91216430  1
  O  O168  1  0.62686153  0.50007742  0.16582110  1
  O  O169  1  0.62666816  0.50845682  0.42273918  1
  O  O170  1  0.62565425  0.49734402  0.65756789  1
  O  O171  1  0.62644971  0.49471110  0.89887858  1
  O  O172  1  0.62887825  0.75001228  0.16885622  1
  O  O173  1  0.62698691  0.74543446  0.42117673  1
  O  O174  1  0.62239494  0.75764552  0.66431301  1
  O  O175  1  0.62455672  0.75892035  0.90275104  1
  O  O176  1  0.87446903  -0.00936064  0.16711865  1
  O  O177  1  0.87649368  -0.00715554  0.41250102  1
  O  O178  1  0.87940764  0.00274830  0.66402301  1
  O  O179  1  0.87200982  0.00413980  0.91657245  1
  O  O180  1  0.87316660  0.25274986  0.16227976  1
  O  O181  1  0.87754211  0.25785253  0.40780888  1
  O  O182  1  0.87921651  0.24535295  0.66197243  1
  O  O183  1  0.86991030  0.24010570  0.91546583  1
  O  O184  1  0.87279408  0.50502412  0.16126849  1
  O  O185  1  0.87432051  0.50202534  0.42386600  1
  O  O186  1  0.87849886  0.49162289  0.66193341  1
  O  O187  1  0.86988947  0.50233330  0.90582837  1
  O  O188  1  0.87428112  0.74724423  0.16894430  1
  O  O189  1  0.87591748  0.74714980  0.42431054  1
  O  O190  1  0.88189736  0.76124387  0.66211151  1
  O  O191  1  0.87192999  0.75344786  0.90643664  1
  O  O192  1  0.00489167  0.11933783  0.16357637  1
  O  O193  1  -0.00078327  0.12299082  0.41369137  1
  O  O194  1  -0.00272081  0.12136599  0.66693399  1
  O  O195  1  -0.00750617  0.12158928  0.91293039  1
  O  O196  1  -0.00096310  0.37782015  0.16108973  1
  O  O197  1  -0.00736331  0.38279526  0.41734576  1
  O  O198  1  -0.00641286  0.37042469  0.66896449  1
  O  O199  1  -0.00163050  0.37447536  0.90827143  1
  O  O200  1  -0.00047327  0.62725252  0.16219175  1
  O  O201  1  0.00113963  0.62507145  0.42167831  1
  O  O202  1  0.00796180  0.63306474  0.66700766  1
  O  O203  1  0.00073524  0.62974377  0.89924580  1
  O  O204  1  0.00075473  0.86962397  0.16752940  1
  O  O205  1  0.00099530  0.86784263  0.41932382  1
  O  O206  1  0.00318854  0.88160967  0.66682186  1
  O  O207  1  0.00429717  0.87668050  0.91105335  1
  O  O208  1  0.24244925  0.12005028  0.16163552  1
  O  O209  1  0.24473821  0.12362601  0.41368191  1
  O  O210  1  0.24257372  0.12018536  0.65527303  1
  O  O211  1  0.24977390  0.12156158  0.91461002  1
  O  O212  1  0.24757886  0.37687178  0.16271880  1
  O  O213  1  0.25462743  0.38110917  0.41394340  1
  O  O214  1  0.24893112  0.37517274  0.66723026  1
  O  O215  1  0.25286797  0.37629793  0.90559122  1
  O  O216  1  0.24098153  0.62940341  0.15774970  1
  O  O217  1  0.24844939  0.62685759  0.41853387  1
  O  O218  1  0.25543668  0.63333557  0.67126596  1
  O  O219  1  0.25830541  0.62846651  0.90579179  1
  O  O220  1  0.23855930  0.86809155  0.16330847  1
  O  O221  1  0.24053196  0.86707702  0.41135535  1
  O  O222  1  0.24709895  0.88031017  0.66373293  1
  O  O223  1  0.24512298  0.87660405  0.91285584  1
  O  O224  1  0.50287486  0.12362162  0.16968148  1
  O  O225  1  0.50835639  0.12413479  0.41188759  1
  O  O226  1  0.49880308  0.12176225  0.65257635  1
  O  O227  1  0.50844837  0.12163340  0.91214664  1
  O  O228  1  0.50727845  0.37819974  0.16605394  1
  O  O229  1  0.49452476  0.37952944  0.41698675  1
  O  O230  1  0.49940962  0.37432243  0.65655894  1
  O  O231  1  0.51070484  0.37189489  0.91076807  1
  O  O232  1  0.50843809  0.62550171  0.16601890  1
  O  O233  1  0.50270280  0.62550891  0.41858183  1
  O  O234  1  0.48761743  0.63148352  0.66235249  1
  O  O235  1  0.49701028  0.62772499  0.90872420  1
  O  O236  1  0.50894976  0.86895233  0.16456893  1
  O  O237  1  0.50585048  0.87144892  0.41471834  1
  O  O238  1  0.49106248  0.87856475  0.65585012  1
  O  O239  1  0.50871038  0.87891852  0.91053075  1
  O  O240  1  0.74620726  0.12284989  0.17148602  1
  O  O241  1  0.74886221  0.12431543  0.41207428  1
  O  O242  1  0.76273337  0.12370260  0.66155638  1
  O  O243  1  0.74902603  0.12187448  0.91659204  1
  O  O244  1  0.74464161  0.37892236  0.16341975  1
  O  O245  1  0.75973869  0.38003752  0.41838380  1
  O  O246  1  0.75908266  0.37043429  0.65884362  1
  O  O247  1  0.73872535  0.36926013  0.91476790  1
  O  O248  1  0.74914375  0.62609815  0.16667786  1
  O  O249  1  0.74873536  0.62634407  0.42350078  1
  O  O250  1  0.75100790  0.62845731  0.66289141  1
  O  O251  1  0.74505314  0.62797267  0.90511185  1
  O  O252  1  0.74947085  0.86882583  0.16805928  1
  O  O253  1  0.75264700  0.86989877  0.41962533  1
  O  O254  1  0.75905401  0.87920107  0.65812655  1
  O  O255  1  0.74233947  0.87907693  0.91075993  1
  O  O256  1  0.12007085  0.11850121  0.04825992  1
  O  O257  1  0.12408877  0.11985743  0.28061564  1
  O  O258  1  0.11794795  0.12024413  0.54967220  1
  O  O259  1  0.12113687  0.12185817  0.78466608  1
  O  O260  1  0.12345870  0.37993005  0.03086888  1
  O  O261  1  0.12142058  0.38529413  0.28497656  1
  O  O262  1  0.12102693  0.37986533  0.54512112  1
  O  O263  1  0.11819758  0.37071312  0.77772588  1
  O  O264  1  0.12296702  0.63043958  0.04384712  1
  O  O265  1  0.12405241  0.62550976  0.29990442  1
  O  O266  1  0.13373575  0.62983917  0.56735645  1
  O  O267  1  0.13232408  0.64009942  0.77157157  1
  O  O268  1  0.12050561  0.87277979  0.04942107  1
  O  O269  1  0.11777552  0.86414763  0.29973952  1
  O  O270  1  0.12454541  0.87685425  0.55069392  1
  O  O271  1  0.12657006  0.88269410  0.79652405  1
  O  O272  1  0.38405662  0.12248471  0.03506327  1
  O  O273  1  0.37269935  0.11928793  0.29225383  1
  O  O274  1  0.37218055  0.12585474  0.52259164  1
  O  O275  1  0.37372010  0.11843040  0.78455651  1
  O  O276  1  0.38198341  0.38149968  0.03169593  1
  O  O277  1  0.37553892  0.38402180  0.30204810  1
  O  O278  1  0.37057730  0.37697247  0.53431978  1
  O  O279  1  0.37580664  0.37477106  0.78141777  1
  O  O280  1  0.38508054  0.62754532  0.03520336  1
  O  O281  1  0.37391474  0.62307310  0.30213839  1
  O  O282  1  0.36675482  0.62840138  0.54913468  1
  O  O283  1  0.37886080  0.62753823  0.79334535  1
  O  O284  1  0.37503058  0.86272856  0.03991993  1
  O  O285  1  0.37505560  0.86490146  0.28558366  1
  O  O286  1  0.36874246  0.87208273  0.54709239  1
  O  O287  1  0.37200653  0.88534499  0.78398776  1
  O  O288  1  0.63098271  0.12134287  0.03657080  1
  O  O289  1  0.62796919  0.12394934  0.29896108  1
  O  O290  1  0.63514313  0.12270316  0.53041173  1
  O  O291  1  0.62799228  0.12532671  0.79944110  1
  O  O292  1  0.62360945  0.37840024  0.04853573  1
  O  O293  1  0.62885699  0.38817721  0.29732395  1
  O  O294  1  0.62484896  0.36774714  0.52571262  1
  O  O295  1  0.62669802  0.36912087  0.79242503  1
  O  O296  1  0.62565487  0.62598218  0.04637793  1
  O  O297  1  0.62613000  0.62483502  0.30826029  1
  O  O298  1  0.62513276  0.63428771  0.54063643  1
  O  O299  1  0.62117413  0.63014440  0.77379943  1
  O  O300  1  0.62641291  0.87076998  0.05025887  1
  O  O301  1  0.63130274  0.86927747  0.30463048  1
  O  O302  1  0.62623592  0.87854302  0.53122298  1
  O  O303  1  0.62503141  0.88356078  0.79250756  1
  O  O304  1  0.86558219  0.11671892  0.04156417  1
  O  O305  1  0.87683891  0.11971075  0.28187477  1
  O  O306  1  0.88074262  0.12511518  0.54679590  1
  O  O307  1  0.87206427  0.12334835  0.80036098  1
  O  O308  1  0.87223687  0.37918515  0.02737132  1
  O  O309  1  0.87412124  0.38375691  0.29967673  1
  O  O310  1  0.88226297  0.37297993  0.54855744  1
  O  O311  1  0.87088777  0.36965173  0.79003627  1
  O  O312  1  0.87223369  0.62682136  0.04455528  1
  O  O313  1  0.87459800  0.62148710  0.30753450  1
  O  O314  1  0.87708897  0.62700140  0.54562893  1
  O  O315  1  0.87268109  0.62903524  0.77107626  1
  O  O316  1  0.87468414  0.87120588  0.04820375  1
  O  O317  1  0.87571899  0.86581662  0.30092356  1
  O  O318  1  0.88295362  0.87989666  0.55147041  1
  O  O319  1  0.87555337  0.88366557  0.78182621  1
