# generated using pymatgen
data_VFe(PbO3)2
_symmetry_space_group_name_H-M   'P 1'
_cell_length_a   15.37716753
_cell_length_b   15.38639455
_cell_length_c   18.52298409
_cell_angle_alpha   89.98759365
_cell_angle_beta   89.98572537
_cell_angle_gamma   89.99411332
_symmetry_Int_Tables_number   1
_chemical_formula_structural   VFe(PbO3)2
_chemical_formula_sum   'V32 Fe32 Pb64 O192'
_cell_volume   4382.52233477
_cell_formula_units_Z   32
loop_
 _symmetry_equiv_pos_site_id
 _symmetry_equiv_pos_as_xyz
  1  'x, y, z'
loop_
 _atom_site_type_symbol
 _atom_site_label
 _atom_site_symmetry_multiplicity
 _atom_site_fract_x
 _atom_site_fract_y
 _atom_site_fract_z
 _atom_site_occupancy
  V  V0  1  0.62556429  0.12574874  0.14049191  1
  V  V1  1  0.62524257  0.87028742  0.38599293  1
  V  V2  1  0.11351817  0.87305669  0.88692325  1
  V  V3  1  0.62600720  0.37307598  0.88860474  1
  V  V4  1  0.62403685  0.62469079  0.13663904  1
  V  V5  1  0.12449093  0.62704404  0.64508578  1
  V  V6  1  0.62161419  0.87093415  0.89265088  1
  V  V7  1  0.87659746  0.62372580  0.39095218  1
  V  V8  1  0.37535689  0.12752502  0.13925577  1
  V  V9  1  0.62549319  0.37065931  0.64063872  1
  V  V10  1  0.12497721  0.62610992  0.38850635  1
  V  V11  1  0.12482708  0.87411299  0.38650792  1
  V  V12  1  0.37079761  0.87602333  0.88832978  1
  V  V13  1  0.86753552  0.87500128  0.89041423  1
  V  V14  1  0.87525487  0.12445331  0.64081625  1
  V  V15  1  0.37761749  0.37546678  0.13388554  1
  V  V16  1  0.12645410  0.87740204  0.13437805  1
  V  V17  1  0.37342369  0.62399185  0.39169450  1
  V  V18  1  0.87179793  0.62232095  0.89248585  1
  V  V19  1  0.37387949  0.12453047  0.64135048  1
  V  V20  1  0.12469462  0.37465753  0.65346693  1
  V  V21  1  0.87888728  0.37378297  0.38842871  1
  V  V22  1  0.62492866  0.62428012  0.63889521  1
  V  V23  1  0.87514837  0.37799942  0.65108156  1
  V  V24  1  0.12330718  0.88104127  0.64031808  1
  V  V25  1  0.87177352  0.37373751  0.13129463  1
  V  V26  1  0.37143073  0.37408933  0.38937360  1
  V  V27  1  0.38045234  0.62122894  0.89081108  1
  V  V28  1  0.62495893  0.11728244  0.88972676  1
  V  V29  1  0.37442796  0.37838104  0.65178359  1
  V  V30  1  0.62501734  0.87786988  0.63561653  1
  V  V31  1  0.12505025  0.38038859  0.38956408  1
  Fe  Fe32  1  0.12675149  0.62543147  0.12362377  1
  Fe  Fe33  1  0.87131750  0.12223569  0.89590656  1
  Fe  Fe34  1  0.37228504  0.87200338  0.63595929  1
  Fe  Fe35  1  0.62511544  0.62678769  0.88512851  1
  Fe  Fe36  1  0.12650134  0.11999836  0.88191043  1
  Fe  Fe37  1  0.12591588  0.37209658  0.12410175  1
  Fe  Fe38  1  0.87387148  0.62244567  0.13040654  1
  Fe  Fe39  1  0.12369595  0.12822829  0.64772753  1
  Fe  Fe40  1  0.37649700  0.87648346  0.14204161  1
  Fe  Fe41  1  0.87279283  0.37438113  0.88094480  1
  Fe  Fe42  1  0.87348809  0.87429481  0.14035327  1
  Fe  Fe43  1  0.12499260  0.63147583  0.89819398  1
  Fe  Fe44  1  0.87802488  0.12616361  0.38200556  1
  Fe  Fe45  1  0.38037106  0.12143176  0.88470240  1
  Fe  Fe46  1  0.37892529  0.37195700  0.87868909  1
  Fe  Fe47  1  0.37695787  0.62347971  0.12945336  1
  Fe  Fe48  1  0.62398922  0.87658710  0.13596284  1
  Fe  Fe49  1  0.37277894  0.87412091  0.38240039  1
  Fe  Fe50  1  0.87690366  0.87357847  0.38132691  1
  Fe  Fe51  1  0.12646326  0.12459998  0.12973049  1
  Fe  Fe52  1  0.62547131  0.12735578  0.38855842  1
  Fe  Fe53  1  0.62515324  0.12574590  0.63087066  1
  Fe  Fe54  1  0.87607490  0.87262258  0.63614020  1
  Fe  Fe55  1  0.12496296  0.12926570  0.38619698  1
  Fe  Fe56  1  0.62516601  0.62484649  0.38718628  1
  Fe  Fe57  1  0.87460801  0.12751556  0.12867809  1
  Fe  Fe58  1  0.12604104  0.37613299  0.88668636  1
  Fe  Fe59  1  0.62389616  0.37329340  0.13964493  1
  Fe  Fe60  1  0.37128709  0.12621318  0.38399200  1
  Fe  Fe61  1  0.62557755  0.38108020  0.38456149  1
  Fe  Fe62  1  0.87612163  0.62446452  0.63814911  1
  Fe  Fe63  1  0.37308543  0.62471795  0.63827491  1
  Pb  Pb64  1  -0.00178549  0.01393418  0.00519653  1
  Pb  Pb65  1  -0.00577190  0.00622374  0.24358960  1
  Pb  Pb66  1  -0.00330628  0.00037164  0.49473664  1
  Pb  Pb67  1  -0.00660134  0.01329250  0.75849543  1
  Pb  Pb68  1  0.00451407  0.24760600  -0.01210161  1
  Pb  Pb69  1  0.00397150  0.24145407  0.24066906  1
  Pb  Pb70  1  0.00628149  0.24349935  0.50456465  1
  Pb  Pb71  1  -0.00180103  0.25634983  0.76212598  1
  Pb  Pb72  1  0.00834355  0.49671157  -0.00417420  1
  Pb  Pb73  1  0.00221776  0.49884115  0.23378896  1
  Pb  Pb74  1  -0.00301472  0.50428474  0.50468764  1
  Pb  Pb75  1  0.00856006  0.50185290  0.76288074  1
  Pb  Pb76  1  -0.01427749  0.75107944  0.00829391  1
  Pb  Pb77  1  -0.00216696  0.74974280  0.24121087  1
  Pb  Pb78  1  -0.00620760  0.75137981  0.50313353  1
  Pb  Pb79  1  -0.00029106  0.74739043  0.75255218  1
  Pb  Pb80  1  0.24760619  0.00348192  -0.00167368  1
  Pb  Pb81  1  0.25214274  0.00509980  0.25073194  1
  Pb  Pb82  1  0.25224919  0.00005358  0.49646408  1
  Pb  Pb83  1  0.24933694  0.00793733  0.75293567  1
  Pb  Pb84  1  0.24780746  0.24805213  -0.01384824  1
  Pb  Pb85  1  0.24567103  0.24355713  0.24686083  1
  Pb  Pb86  1  0.24221464  0.24242110  0.50632311  1
  Pb  Pb87  1  0.25149377  0.25488357  0.76042622  1
  Pb  Pb88  1  0.24498416  0.49619688  -0.00426676  1
  Pb  Pb89  1  0.24754364  0.50048717  0.23625819  1
  Pb  Pb90  1  0.25255072  0.50393575  0.50501801  1
  Pb  Pb91  1  0.24079975  0.50217404  0.76292633  1
  Pb  Pb92  1  0.25765227  0.74581598  0.00429689  1
  Pb  Pb93  1  0.25321485  0.75015011  0.24157848  1
  Pb  Pb94  1  0.25565454  0.75112929  0.50344440  1
  Pb  Pb95  1  0.24629679  0.74680635  0.75400879  1
  Pb  Pb96  1  0.49849765  -0.01231519  0.00867016  1
  Pb  Pb97  1  0.49531752  0.00115037  0.25300453  1
  Pb  Pb98  1  0.49820559  0.00102786  0.49241642  1
  Pb  Pb99  1  0.49520515  0.00233682  0.74698837  1
  Pb  Pb100  1  0.50326152  0.25323347  -0.00137869  1
  Pb  Pb101  1  0.50267742  0.24214017  0.25523476  1
  Pb  Pb102  1  0.50427532  0.24656718  0.49686672  1
  Pb  Pb103  1  0.49334979  0.24559238  0.75284896  1
  Pb  Pb104  1  0.50756782  0.49572290  0.00111513  1
  Pb  Pb105  1  0.50980562  0.50025348  0.25262613  1
  Pb  Pb106  1  0.49745804  0.50266123  0.50133320  1
  Pb  Pb107  1  0.50235562  0.50160770  0.75125366  1
  Pb  Pb108  1  0.49135302  0.75208463  0.00744280  1
  Pb  Pb109  1  0.49662024  0.75178111  0.24647091  1
  Pb  Pb110  1  0.49133043  0.75282222  0.50116766  1
  Pb  Pb111  1  0.50035009  0.74646736  0.74731538  1
  Pb  Pb112  1  0.74999831  -0.00931088  0.00903952  1
  Pb  Pb113  1  0.75753053  0.00136642  0.24829320  1
  Pb  Pb114  1  0.75188596  0.00120600  0.49171761  1
  Pb  Pb115  1  0.75300726  0.00424745  0.74941787  1
  Pb  Pb116  1  0.75378171  0.24963098  -0.00087248  1
  Pb  Pb117  1  0.74861201  0.24142544  0.25245825  1
  Pb  Pb118  1  0.74576226  0.24671361  0.49665343  1
  Pb  Pb119  1  0.75997857  0.24511905  0.75591137  1
  Pb  Pb120  1  0.74666535  0.49860009  0.00096640  1
  Pb  Pb121  1  0.74238862  0.49856324  0.25002554  1
  Pb  Pb122  1  0.75277102  0.50262209  0.50076526  1
  Pb  Pb123  1  0.74724735  0.50162884  0.75165938  1
  Pb  Pb124  1  0.75501119  0.75151071  0.00811466  1
  Pb  Pb125  1  0.75260938  0.75176806  0.24623017  1
  Pb  Pb126  1  0.75843846  0.75285993  0.50097969  1
  Pb  Pb127  1  0.74620647  0.74639544  0.74731513  1
  O  O128  1  0.12668232  -0.00458723  0.16091297  1
  O  O129  1  0.12498754  -0.00822786  0.40933383  1
  O  O130  1  0.12461248  -0.00445459  0.65930282  1
  O  O131  1  0.12693339  -0.01371709  0.91405687  1
  O  O132  1  0.12813021  0.25083105  0.15738159  1
  O  O133  1  0.12494828  0.26070901  0.41856981  1
  O  O134  1  0.12440476  0.25707022  0.67344751  1
  O  O135  1  0.12652329  0.24690050  0.90110328  1
  O  O136  1  0.12777681  0.49636185  0.15491511  1
  O  O137  1  0.12494442  0.50294423  0.42221495  1
  O  O138  1  0.12477295  0.50211670  0.67183137  1
  O  O139  1  0.12668525  0.50438406  0.91197716  1
  O  O140  1  0.12704343  0.75610805  0.15604529  1
  O  O141  1  0.12484151  0.74723267  0.41481923  1
  O  O142  1  0.12396845  0.74611259  0.66576591  1
  O  O143  1  0.13028577  0.76252303  0.91693538  1
  O  O144  1  0.37722047  0.00854954  0.16341499  1
  O  O145  1  0.37083681  -0.00159494  0.41272451  1
  O  O146  1  0.37429272  0.00232876  0.66132077  1
  O  O147  1  0.38396917  -0.00792693  0.91438799  1
  O  O148  1  0.37671535  0.24748359  0.16157273  1
  O  O149  1  0.37080055  0.25970828  0.41204370  1
  O  O150  1  0.37587594  0.24451219  0.66787703  1
  O  O151  1  0.38137512  0.24751525  0.91022923  1
  O  O152  1  0.37624516  0.49295369  0.15414814  1
  O  O153  1  0.37112241  0.50182845  0.41881552  1
  O  O154  1  0.37479268  0.50010245  0.67112824  1
  O  O155  1  0.38169196  0.50482311  0.90294324  1
  O  O156  1  0.37656954  0.74787345  0.16373540  1
  O  O157  1  0.37191642  0.74362482  0.41197081  1
  O  O158  1  0.37418741  0.74903075  0.66915966  1
  O  O159  1  0.38230638  0.75893947  0.91440539  1
  O  O160  1  0.62297560  0.00977369  0.16484348  1
  O  O161  1  0.62515232  -0.00916929  0.41041304  1
  O  O162  1  0.62499137  -0.00405652  0.65813775  1
  O  O163  1  0.62625832  -0.00026382  0.91375513  1
  O  O164  1  0.62177655  0.24491621  0.16528565  1
  O  O165  1  0.62493334  0.25831204  0.41567006  1
  O  O166  1  0.62503640  0.25395760  0.66181409  1
  O  O167  1  0.62629524  0.25087264  0.90960856  1
  O  O168  1  0.62348529  0.50272016  0.16386314  1
  O  O169  1  0.62495137  0.50193742  0.42281800  1
  O  O170  1  0.62573413  0.49621169  0.66529748  1
  O  O171  1  0.62445143  0.49629398  0.91280139  1
  O  O172  1  0.62303556  0.74255139  0.15708367  1
  O  O173  1  0.62489361  0.75268397  0.41447490  1
  O  O174  1  0.62486630  0.75207749  0.66122378  1
  O  O175  1  0.62660570  0.75630896  0.91194122  1
  O  O176  1  0.87293768  0.00209874  0.15941216  1
  O  O177  1  0.87858309  -0.00169617  0.41050706  1
  O  O178  1  0.87420630  0.00356773  0.66249045  1
  O  O179  1  0.87212028  -0.01128906  0.91664443  1
  O  O180  1  0.87306734  0.25673539  0.15549999  1
  O  O181  1  0.87918472  0.25972219  0.41145835  1
  O  O182  1  0.87434098  0.24472142  0.66941565  1
  O  O183  1  0.86959620  0.25049193  0.91192398  1
  O  O184  1  0.87354622  0.49405262  0.15786341  1
  O  O185  1  0.87902672  0.50178819  0.41801576  1
  O  O186  1  0.87440907  0.49924667  0.67058531  1
  O  O187  1  0.87024476  0.50531847  0.90737216  1
  O  O188  1  0.87431648  0.74623584  0.16487457  1
  O  O189  1  0.87797574  0.74324173  0.41183806  1
  O  O190  1  0.87510679  0.74915222  0.66927768  1
  O  O191  1  0.87013931  0.75652058  0.91590601  1
  O  O192  1  0.00012605  0.12624953  0.15645797  1
  O  O193  1  0.00169402  0.12812159  0.41804315  1
  O  O194  1  -0.00781605  0.12555056  0.66913080  1
  O  O195  1  0.00058289  0.11714539  0.90946190  1
  O  O196  1  -0.00680686  0.37518907  0.15233519  1
  O  O197  1  -0.00141243  0.38191648  0.41776083  1
  O  O198  1  0.00269288  0.37611995  0.67351865  1
  O  O199  1  -0.00295095  0.37743700  0.90729851  1
  O  O200  1  0.00194790  0.62382564  0.15537730  1
  O  O201  1  -0.00080145  0.62296034  0.41673988  1
  O  O202  1  0.00616980  0.62340642  0.66972297  1
  O  O203  1  -0.01056519  0.63276599  0.91358761  1
  O  O204  1  0.00781339  0.87490218  0.16026324  1
  O  O205  1  0.00721553  0.86950260  0.41274144  1
  O  O206  1  0.00708101  0.87131912  0.66639918  1
  O  O207  1  -0.00224868  0.87094061  0.90453453  1
  O  O208  1  0.25628820  0.12542446  0.15920777  1
  O  O209  1  0.24765671  0.12789835  0.42035291  1
  O  O210  1  0.25585460  0.12550580  0.66741172  1
  O  O211  1  0.25324273  0.11609572  0.90789500  1
  O  O212  1  0.25996950  0.37161890  0.15702999  1
  O  O213  1  0.25143671  0.38216383  0.41792941  1
  O  O214  1  0.24676952  0.37590254  0.67294116  1
  O  O215  1  0.25572234  0.37637971  0.90590870  1
  O  O216  1  0.25070880  0.62384538  0.15852906  1
  O  O217  1  0.25072101  0.62292492  0.41710169  1
  O  O218  1  0.24267016  0.62406811  0.66984715  1
  O  O219  1  0.26333697  0.63325061  0.91164374  1
  O  O220  1  0.24485808  0.87688060  0.16205397  1
  O  O221  1  0.24229577  0.86959136  0.41315639  1
  O  O222  1  0.24080103  0.87132385  0.66673420  1
  O  O223  1  0.25678121  0.87661727  0.90536731  1
  O  O224  1  0.49871967  0.12754328  0.16558811  1
  O  O225  1  0.49702305  0.12751020  0.41374548  1
  O  O226  1  0.49633132  0.12380453  0.66061482  1
  O  O227  1  0.51099594  0.12397956  0.91619978  1
  O  O228  1  0.49185097  0.37099632  0.16478781  1
  O  O229  1  0.48942341  0.38143864  0.41305159  1
  O  O230  1  0.50677317  0.37540993  0.66633331  1
  O  O231  1  0.50669235  0.37497067  0.91266766  1
  O  O232  1  0.50480770  0.62184731  0.16096657  1
  O  O233  1  0.49168607  0.62308932  0.41379874  1
  O  O234  1  0.50384284  0.62357085  0.66449946  1
  O  O235  1  0.49790787  0.63070335  0.91513013  1
  O  O236  1  0.50264336  0.87760936  0.17018567  1
  O  O237  1  0.50420719  0.87127094  0.41012800  1
  O  O238  1  0.50652778  0.87368555  0.66107251  1
  O  O239  1  0.50521600  0.87638475  0.91437652  1
  O  O240  1  0.74453231  0.12886062  0.15872262  1
  O  O241  1  0.75330954  0.12773856  0.41417477  1
  O  O242  1  0.75418642  0.12471430  0.66241798  1
  O  O243  1  0.73900255  0.12284374  0.91886612  1
  O  O244  1  0.75480898  0.37509725  0.16055348  1
  O  O245  1  0.76076821  0.38158585  0.41217413  1
  O  O246  1  0.74414419  0.37453621  0.66731850  1
  O  O247  1  0.74367968  0.37688129  0.91328560  1
  O  O248  1  0.74313724  0.62218150  0.15945946  1
  O  O249  1  0.75824169  0.62296739  0.41327713  1
  O  O250  1  0.74605093  0.62382541  0.66467845  1
  O  O251  1  0.75287179  0.62921191  0.91591495  1
  O  O252  1  0.74580549  0.87460234  0.16737655  1
  O  O253  1  0.74582991  0.87072442  0.41024983  1
  O  O254  1  0.74305232  0.87386294  0.66220781  1
  O  O255  1  0.74737630  0.87638860  0.91549642  1
  O  O256  1  0.12743201  0.11549531  0.02933863  1
  O  O257  1  0.12812830  0.13356098  0.28620092  1
  O  O258  1  0.12377822  0.13925143  0.54708221  1
  O  O259  1  0.12413176  0.11202848  0.77874333  1
  O  O260  1  0.12856090  0.37861881  0.02363527  1
  O  O261  1  0.12547769  0.38011982  0.29888642  1
  O  O262  1  0.12435646  0.37810570  0.56245087  1
  O  O263  1  0.12501739  0.38463872  0.78378199  1
  O  O264  1  0.13080794  0.62624112  0.02229823  1
  O  O265  1  0.12570090  0.62248002  0.29797069  1
  O  O266  1  0.12454914  0.62371256  0.55414037  1
  O  O267  1  0.12537560  0.62951441  0.79618380  1
  O  O268  1  0.12709527  0.87916263  0.04340301  1
  O  O269  1  0.12523048  0.87163649  0.29603671  1
  O  O270  1  0.12361349  0.87390515  0.54926037  1
  O  O271  1  0.12090177  0.87298259  0.79558276  1
  O  O272  1  0.37899547  0.12665963  0.04822944  1
  O  O273  1  0.36935120  0.12717999  0.28405771  1
  O  O274  1  0.37027022  0.12756970  0.55010212  1
  O  O275  1  0.38463197  0.11707592  0.78470718  1
  O  O276  1  0.38182654  0.37108195  0.04260454  1
  O  O277  1  0.36937028  0.37786626  0.29898917  1
  O  O278  1  0.37366077  0.37414322  0.56062113  1
  O  O279  1  0.38234274  0.36537150  0.77742830  1
  O  O280  1  0.37734357  0.63352853  0.02962677  1
  O  O281  1  0.37125361  0.61991012  0.30114488  1
  O  O282  1  0.37015138  0.62576886  0.53833411  1
  O  O283  1  0.38147252  0.63194319  0.79939835  1
  O  O284  1  0.38431636  0.87553269  0.04073540  1
  O  O285  1  0.37176969  0.87556723  0.28232171  1
  O  O286  1  0.37155253  0.86458253  0.53603284  1
  O  O287  1  0.37867577  0.87614725  0.79694993  1
  O  O288  1  0.62127358  0.12635929  0.04946331  1
  O  O289  1  0.62651008  0.13513609  0.28831870  1
  O  O290  1  0.62577680  0.12954815  0.53147640  1
  O  O291  1  0.62622223  0.11733495  0.79808065  1
  O  O292  1  0.61928435  0.37880992  0.03945418  1
  O  O293  1  0.62520744  0.38672443  0.28400741  1
  O  O294  1  0.62589834  0.37468260  0.54969319  1
  O  O295  1  0.62607679  0.37432461  0.79777635  1
  O  O296  1  0.62340545  0.61897175  0.04488367  1
  O  O297  1  0.62398091  0.61566359  0.28841266  1
  O  O298  1  0.62505434  0.62410574  0.54751912  1
  O  O299  1  0.62542856  0.62443075  0.78592303  1
  O  O300  1  0.62433753  0.88465994  0.03544236  1
  O  O301  1  0.62545017  0.86906089  0.29516030  1
  O  O302  1  0.62563767  0.87466308  0.54480435  1
  O  O303  1  0.62365052  0.87620893  0.80181784  1
  O  O304  1  0.87509326  0.12320903  0.02690243  1
  O  O305  1  0.87540125  0.13063559  0.28185374  1
  O  O306  1  0.87917464  0.12783475  0.54975858  1
  O  O307  1  0.86580300  0.11491605  0.79394546  1
  O  O308  1  0.86710359  0.37629389  0.03989107  1
  O  O309  1  0.88150466  0.37673655  0.29811082  1
  O  O310  1  0.87645670  0.37316439  0.55999401  1
  O  O311  1  0.86934550  0.36642507  0.77997865  1
  O  O312  1  0.87081734  0.63447857  0.03069501  1
  O  O313  1  0.87892793  0.61982370  0.30047855  1
  O  O314  1  0.87947254  0.62509370  0.53832256  1
  O  O315  1  0.87059514  0.63026202  0.80115521  1
  O  O316  1  0.86969756  0.86612510  0.03836609  1
  O  O317  1  0.87709053  0.87201249  0.28141215  1
  O  O318  1  0.87753653  0.86528833  0.53631847  1
  O  O319  1  0.86560195  0.87624596  0.79923563  1
