# generated using pymatgen
data_VFe(PbO3)2
_symmetry_space_group_name_H-M   'P 1'
_cell_length_a   15.37480286
_cell_length_b   15.37841141
_cell_length_c   18.55812691
_cell_angle_alpha   90.03420600
_cell_angle_beta   90.01616062
_cell_angle_gamma   90.01373087
_symmetry_Int_Tables_number   1
_chemical_formula_structural   VFe(PbO3)2
_chemical_formula_sum   'V32 Fe32 Pb64 O192'
_cell_volume   4387.88325497
_cell_formula_units_Z   32
loop_
 _symmetry_equiv_pos_site_id
 _symmetry_equiv_pos_as_xyz
  1  'x, y, z'
loop_
 _atom_site_type_symbol
 _atom_site_label
 _atom_site_symmetry_multiplicity
 _atom_site_fract_x
 _atom_site_fract_y
 _atom_site_fract_z
 _atom_site_occupancy
  V  V0  1  0.38116468  0.62274690  0.88844241  1
  V  V1  1  0.62373732  0.62338999  0.38755417  1
  V  V2  1  0.88232302  0.62317060  0.88974175  1
  V  V3  1  0.62556348  0.37367327  0.14568047  1
  V  V4  1  0.12459960  0.12632222  0.38803706  1
  V  V5  1  0.62473794  0.12937750  0.38649044  1
  V  V6  1  0.62712018  0.87809573  0.38508583  1
  V  V7  1  0.37654556  0.62723950  0.63817156  1
  V  V8  1  0.37363506  0.62713834  0.14529511  1
  V  V9  1  0.12484573  0.62572522  0.14340782  1
  V  V10  1  0.87048334  0.36981255  0.38684217  1
  V  V11  1  0.87330145  0.12603147  0.89133865  1
  V  V12  1  0.62624433  0.37420373  0.88977753  1
  V  V13  1  0.63091708  0.62502374  0.89387453  1
  V  V14  1  0.37282899  0.37583398  0.14070923  1
  V  V15  1  0.37510613  0.37196618  0.39199076  1
  V  V16  1  0.62560185  0.12458162  0.89107325  1
  V  V17  1  0.12669719  0.12683632  0.13743219  1
  V  V18  1  0.87622544  0.87334813  0.63702475  1
  V  V19  1  0.87539647  0.62297046  0.14013799  1
  V  V20  1  0.87255098  0.37800331  0.89385592  1
  V  V21  1  0.37805774  0.12456945  0.64118011  1
  V  V22  1  0.87507223  0.37612834  0.63650360  1
  V  V23  1  0.62181984  0.12221231  0.13632522  1
  V  V24  1  0.37627446  0.87475081  0.64000150  1
  V  V25  1  0.87678312  0.62463602  0.38920441  1
  V  V26  1  0.12602456  0.87829353  0.14179156  1
  V  V27  1  0.13167341  0.62606063  0.88834119  1
  V  V28  1  0.37287499  0.12741495  0.14202639  1
  V  V29  1  0.12332942  0.62708312  0.63553177  1
  V  V30  1  0.62452708  0.87507020  0.63993696  1
  V  V31  1  0.62514402  0.37468992  0.63727789  1
  Fe  Fe32  1  0.87566229  0.12357759  0.38437194  1
  Fe  Fe33  1  0.87840915  0.12740322  0.13638099  1
  Fe  Fe34  1  0.37794847  0.37575741  0.63772002  1
  Fe  Fe35  1  0.62727512  0.37600395  0.38266463  1
  Fe  Fe36  1  0.87600879  0.87399283  0.13948608  1
  Fe  Fe37  1  0.12375352  0.12526737  0.87770888  1
  Fe  Fe38  1  0.62300527  0.87358495  0.13289673  1
  Fe  Fe39  1  0.12261120  0.12434696  0.64298296  1
  Fe  Fe40  1  0.37382918  0.87557448  0.14140815  1
  Fe  Fe41  1  0.62372347  0.62240683  0.13582770  1
  Fe  Fe42  1  0.37691384  0.87729092  0.38142925  1
  Fe  Fe43  1  0.12340373  0.37708847  0.88325303  1
  Fe  Fe44  1  0.12769400  0.37580552  0.13647411  1
  Fe  Fe45  1  0.62406732  0.62771145  0.63466355  1
  Fe  Fe46  1  0.87815803  0.37614444  0.13407508  1
  Fe  Fe47  1  0.62610341  0.87538634  0.89378419  1
  Fe  Fe48  1  0.87425074  0.87210279  0.88924145  1
  Fe  Fe49  1  0.37532538  0.62463970  0.38096238  1
  Fe  Fe50  1  0.12277363  0.87361235  0.88293543  1
  Fe  Fe51  1  0.87321484  0.62652140  0.63371653  1
  Fe  Fe52  1  0.37785762  0.37767794  0.88151164  1
  Fe  Fe53  1  0.87059876  0.12233444  0.63549061  1
  Fe  Fe54  1  0.12678840  0.87389381  0.63282023  1
  Fe  Fe55  1  0.12594859  0.37606651  0.63380827  1
  Fe  Fe56  1  0.37360644  0.12543873  0.38359258  1
  Fe  Fe57  1  0.37537556  0.87352911  0.88392833  1
  Fe  Fe58  1  0.37603958  0.12617234  0.88120969  1
  Fe  Fe59  1  0.12149461  0.37307351  0.39055302  1
  Fe  Fe60  1  0.87161612  0.87528283  0.38139404  1
  Fe  Fe61  1  0.12363121  0.87505284  0.38695250  1
  Fe  Fe62  1  0.62631056  0.12333934  0.63723358  1
  Fe  Fe63  1  0.12662974  0.62308006  0.38288139  1
  Pb  Pb64  1  -0.00333930  -0.00042343  -0.00437041  1
  Pb  Pb65  1  -0.00802002  -0.00022059  0.25159329  1
  Pb  Pb66  1  -0.00105323  -0.00122500  0.49615581  1
  Pb  Pb67  1  0.00693199  -0.00128237  0.74684387  1
  Pb  Pb68  1  -0.00206407  0.25296158  -0.00131640  1
  Pb  Pb69  1  0.00289568  0.25657599  0.24883502  1
  Pb  Pb70  1  0.01160720  0.24125134  0.50960055  1
  Pb  Pb71  1  0.00688306  0.24782324  0.74825536  1
  Pb  Pb72  1  0.00357214  0.48947919  0.00634681  1
  Pb  Pb73  1  0.00941230  0.49643196  0.25119819  1
  Pb  Pb74  1  0.00012517  0.49679579  0.49681453  1
  Pb  Pb75  1  0.00654270  0.49683056  0.74724085  1
  Pb  Pb76  1  -0.00511880  0.75750073  0.00398821  1
  Pb  Pb77  1  0.00679794  0.75338414  0.25486226  1
  Pb  Pb78  1  0.00394345  0.75632595  0.49521229  1
  Pb  Pb79  1  -0.00072649  0.76051586  0.75163971  1
  Pb  Pb80  1  0.24988745  0.00133265  -0.01215054  1
  Pb  Pb81  1  0.25197577  -0.00561360  0.25380274  1
  Pb  Pb82  1  0.24534600  -0.00351211  0.49694808  1
  Pb  Pb83  1  0.24781668  0.00334094  0.74934288  1
  Pb  Pb84  1  0.24553587  0.25253849  -0.01383471  1
  Pb  Pb85  1  0.24782444  0.25100965  0.25367222  1
  Pb  Pb86  1  0.24107117  0.24764817  0.50717699  1
  Pb  Pb87  1  0.24459080  0.25219544  0.74799188  1
  Pb  Pb88  1  0.24509945  0.49287443  -0.00103143  1
  Pb  Pb89  1  0.24848310  0.50679868  0.25647102  1
  Pb  Pb90  1  0.24818332  0.49722162  0.49580036  1
  Pb  Pb91  1  0.25067462  0.49133115  0.74682295  1
  Pb  Pb92  1  0.25571883  0.75809486  0.00034052  1
  Pb  Pb93  1  0.24123939  0.75259018  0.25891334  1
  Pb  Pb94  1  0.24985660  0.75314757  0.48941631  1
  Pb  Pb95  1  0.25172789  0.75706440  0.74883779  1
  Pb  Pb96  1  0.49025595  -0.01171696  0.00140236  1
  Pb  Pb97  1  0.49098644  -0.00097782  0.24988688  1
  Pb  Pb98  1  0.50035081  0.00440070  0.49619888  1
  Pb  Pb99  1  0.49334641  -0.00060384  0.75549533  1
  Pb  Pb100  1  0.49827361  0.25127705  -0.00443550  1
  Pb  Pb101  1  0.49907633  0.24938892  0.25338327  1
  Pb  Pb102  1  0.49643254  0.25579206  0.50235423  1
  Pb  Pb103  1  0.49099307  0.24834752  0.75246191  1
  Pb  Pb104  1  0.50573458  0.50519876  0.00372325  1
  Pb  Pb105  1  0.49653069  0.49864340  0.25418102  1
  Pb  Pb106  1  0.49633053  0.49444351  0.50092458  1
  Pb  Pb107  1  0.49698472  0.49838249  0.74862461  1
  Pb  Pb108  1  0.50074717  0.75886482  0.00626968  1
  Pb  Pb109  1  0.49823330  0.75436334  0.24723319  1
  Pb  Pb110  1  0.50225198  0.74632661  0.49376725  1
  Pb  Pb111  1  0.50432040  0.76070854  0.75555715  1
  Pb  Pb112  1  0.75429991  -0.00506995  0.00398369  1
  Pb  Pb113  1  0.76128954  -0.00083924  0.24753931  1
  Pb  Pb114  1  0.75284200  0.00663290  0.49988410  1
  Pb  Pb115  1  0.74947299  -0.01001023  0.75300926  1
  Pb  Pb116  1  0.75965947  0.24863712  0.00704350  1
  Pb  Pb117  1  0.75704146  0.24493354  0.24849811  1
  Pb  Pb118  1  0.74911979  0.23828676  0.50271779  1
  Pb  Pb119  1  0.74980868  0.24695295  0.74784756  1
  Pb  Pb120  1  0.74792274  0.50334880  0.00513536  1
  Pb  Pb121  1  0.74696175  0.49539767  0.25123039  1
  Pb  Pb122  1  0.75082897  0.50796027  0.50147106  1
  Pb  Pb123  1  0.74877669  0.50566440  0.74544087  1
  Pb  Pb124  1  0.74849949  0.75913086  0.00734605  1
  Pb  Pb125  1  0.75003749  0.75477349  0.24362774  1
  Pb  Pb126  1  0.74838492  0.74099532  0.50097163  1
  Pb  Pb127  1  0.75067029  0.75717304  0.75349353  1
  O  O128  1  0.12719683  -0.00147209  0.16165774  1
  O  O129  1  0.12369397  0.00790438  0.41101790  1
  O  O130  1  0.12503292  -0.00276209  0.66345039  1
  O  O131  1  0.12093471  0.00027129  0.91003412  1
  O  O132  1  0.12862940  0.24411000  0.16088232  1
  O  O133  1  0.12383783  0.24561540  0.41732269  1
  O  O134  1  0.12502346  0.25258496  0.66619390  1
  O  O135  1  0.12080821  0.25113800  0.90680685  1
  O  O136  1  0.12624887  0.50378814  0.16574687  1
  O  O137  1  0.12243725  0.49829300  0.41495431  1
  O  O138  1  0.12669757  0.50803797  0.66156692  1
  O  O139  1  0.12269483  0.51009956  0.91647017  1
  O  O140  1  0.12721660  0.75168807  0.16771812  1
  O  O141  1  0.12406554  0.74686816  0.41286717  1
  O  O142  1  0.12806570  0.74299907  0.66108405  1
  O  O143  1  0.12212283  0.73936477  0.91657070  1
  O  O144  1  0.37436459  0.00614054  0.16361333  1
  O  O145  1  0.37958155  0.00202013  0.41595497  1
  O  O146  1  0.37919982  -0.00012468  0.66537348  1
  O  O147  1  0.37752275  0.00048345  0.91120579  1
  O  O148  1  0.37344186  0.25448549  0.16790480  1
  O  O149  1  0.37937671  0.25262952  0.41525848  1
  O  O150  1  0.38006591  0.24406445  0.66072685  1
  O  O151  1  0.37888965  0.25254929  0.91078811  1
  O  O152  1  0.37394546  0.49362247  0.16586918  1
  O  O153  1  0.37915244  0.49279639  0.41410827  1
  O  O154  1  0.37894546  0.50842463  0.66201109  1
  O  O155  1  0.37569040  0.50728643  0.91538467  1
  O  O156  1  0.37287077  0.74317638  0.16221162  1
  O  O157  1  0.37924504  0.75116691  0.40794152  1
  O  O158  1  0.37650553  0.74714586  0.66455391  1
  O  O159  1  0.37593885  0.73864741  0.91570847  1
  O  O160  1  0.61877568  0.00823518  0.15572116  1
  O  O161  1  0.62619156  -0.00232253  0.40786739  1
  O  O162  1  0.62591739  -0.00832797  0.66580991  1
  O  O163  1  0.62982694  0.00913356  0.91331802  1
  O  O164  1  0.62129632  0.25275665  0.16587330  1
  O  O165  1  0.62727694  0.24585304  0.40712444  1
  O  O166  1  0.62742734  0.25754159  0.66313997  1
  O  O167  1  0.62813705  0.25010011  0.91774813  1
  O  O168  1  0.62103832  0.49428641  0.16708099  1
  O  O169  1  0.62580954  0.50597681  0.41044650  1
  O  O170  1  0.62519788  0.49499697  0.66232454  1
  O  O171  1  0.62546679  0.50088739  0.91891856  1
  O  O172  1  0.62283909  0.74645716  0.16351475  1
  O  O173  1  0.62489978  0.74766954  0.40936506  1
  O  O174  1  0.62477393  0.75715985  0.66526385  1
  O  O175  1  0.62479055  0.73951318  0.91491881  1
  O  O176  1  0.87705942  0.00193828  0.16233428  1
  O  O177  1  0.87133071  -0.00045366  0.41348686  1
  O  O178  1  0.87108974  -0.00997715  0.66201961  1
  O  O179  1  0.87130934  0.00658045  0.91170084  1
  O  O180  1  0.87363459  0.25179299  0.16517769  1
  O  O181  1  0.86734915  0.25470281  0.40430036  1
  O  O182  1  0.87035512  0.26042792  0.66313555  1
  O  O183  1  0.87241149  0.25039027  0.91612895  1
  O  O184  1  0.87766201  0.50469964  0.16531065  1
  O  O185  1  0.87047406  0.50367826  0.41424829  1
  O  O186  1  0.87259616  0.49477553  0.66346736  1
  O  O187  1  0.87085842  0.50597716  0.91802805  1
  O  O188  1  0.87690840  0.74128876  0.16446237  1
  O  O189  1  0.87040847  0.74333339  0.40906756  1
  O  O190  1  0.87209058  0.75556620  0.66245546  1
  O  O191  1  0.87163969  0.73784550  0.91659748  1
  O  O192  1  0.01092248  0.12412393  0.16162707  1
  O  O193  1  0.00442285  0.12713777  0.41064050  1
  O  O194  1  -0.00735127  0.12590654  0.66558764  1
  O  O195  1  -0.00915298  0.12730846  0.90919979  1
  O  O196  1  0.00270465  0.37469452  0.16556072  1
  O  O197  1  -0.01338288  0.37727927  0.41319881  1
  O  O198  1  -0.00697441  0.37807304  0.65945794  1
  O  O199  1  -0.00496384  0.38069467  0.91523408  1
  O  O200  1  -0.00163142  0.62520131  0.16614449  1
  O  O201  1  -0.00691643  0.62310575  0.40856648  1
  O  O202  1  0.00573741  0.62519146  0.65747358  1
  O  O203  1  -0.00343308  0.62278910  0.91008063  1
  O  O204  1  0.00787945  0.87291203  0.16421658  1
  O  O205  1  -0.00365857  0.87462948  0.41271004  1
  O  O206  1  -0.00560798  0.87111975  0.65813588  1
  O  O207  1  -0.00138113  0.87039589  0.91803675  1
  O  O208  1  0.24554437  0.12449021  0.16693890  1
  O  O209  1  0.24446839  0.12718128  0.41257137  1
  O  O210  1  0.25962438  0.12324705  0.66281921  1
  O  O211  1  0.24954481  0.12588919  0.90831977  1
  O  O212  1  0.25604219  0.37391682  0.16541720  1
  O  O213  1  0.25704230  0.37222675  0.41312648  1
  O  O214  1  0.25211447  0.37785512  0.65967380  1
  O  O215  1  0.25069820  0.38116069  0.90962060  1
  O  O216  1  0.25295101  0.62112569  0.16745051  1
  O  O217  1  0.25217769  0.62066969  0.41274768  1
  O  O218  1  0.25398931  0.62604578  0.66184891  1
  O  O219  1  0.24971624  0.62416812  0.90971772  1
  O  O220  1  0.24447917  0.87471952  0.16569883  1
  O  O221  1  0.25111530  0.87876986  0.41163574  1
  O  O222  1  0.25527054  0.87288454  0.66179563  1
  O  O223  1  0.24898993  0.86870991  0.91200133  1
  O  O224  1  0.50146071  0.13201379  0.16449949  1
  O  O225  1  0.50832766  0.12408837  0.41154325  1
  O  O226  1  0.49920440  0.12251781  0.66516206  1
  O  O227  1  0.50950640  0.12846205  0.91213457  1
  O  O228  1  0.49458519  0.37362146  0.16693520  1
  O  O229  1  0.49961431  0.37364918  0.41527966  1
  O  O230  1  0.50807230  0.37577785  0.66388112  1
  O  O231  1  0.50564346  0.37788484  0.91632233  1
  O  O232  1  0.49261909  0.61919323  0.16458572  1
  O  O233  1  0.50571863  0.62458064  0.40930140  1
  O  O234  1  0.49544197  0.62834419  0.66361435  1
  O  O235  1  0.50007732  0.62074883  0.91237793  1
  O  O236  1  0.49954969  0.87477364  0.16560742  1
  O  O237  1  0.51075685  0.87455513  0.41282422  1
  O  O238  1  0.50328342  0.87362241  0.66574777  1
  O  O239  1  0.49958584  0.87136170  0.91709202  1
  O  O240  1  0.73886924  0.12960941  0.15898260  1
  O  O241  1  0.74268811  0.12327324  0.41241856  1
  O  O242  1  0.74900477  0.12405994  0.67225644  1
  O  O243  1  0.75002483  0.12940447  0.91922272  1
  O  O244  1  0.74457497  0.37633112  0.16141789  1
  O  O245  1  0.75452588  0.38056348  0.41306186  1
  O  O246  1  0.74803231  0.37800383  0.66176406  1
  O  O247  1  0.74850292  0.37753418  0.92116065  1
  O  O248  1  0.75597719  0.62107369  0.16267720  1
  O  O249  1  0.74673899  0.62519715  0.41279904  1
  O  O250  1  0.74875863  0.62564993  0.66755736  1
  O  O251  1  0.74768825  0.62074363  0.91419071  1
  O  O252  1  0.74813257  0.87476109  0.16044644  1
  O  O253  1  0.74164074  0.87142760  0.41103080  1
  O  O254  1  0.74839149  0.87287505  0.66274989  1
  O  O255  1  0.75121466  0.87257084  0.92126101  1
  O  O256  1  0.12816705  0.12463560  0.04691544  1
  O  O257  1  0.12597263  0.12983925  0.29709247  1
  O  O258  1  0.12341444  0.13527344  0.54147076  1
  O  O259  1  0.12444451  0.12469188  0.77650525  1
  O  O260  1  0.12574974  0.38350865  0.03632793  1
  O  O261  1  0.12073221  0.36803803  0.29020844  1
  O  O262  1  0.12106402  0.36723769  0.53286935  1
  O  O263  1  0.12159088  0.38613954  0.78305639  1
  O  O264  1  0.12624866  0.62847894  0.05257724  1
  O  O265  1  0.12769200  0.62667432  0.28209761  1
  O  O266  1  0.12669967  0.62546797  0.54482868  1
  O  O267  1  0.12697145  0.62554077  0.79756968  1
  O  O268  1  0.12614528  0.87331710  0.05083445  1
  O  O269  1  0.12741500  0.86973800  0.28615880  1
  O  O270  1  0.12306464  0.87502359  0.53287489  1
  O  O271  1  0.11882852  0.86555105  0.78286963  1
  O  O272  1  0.37237726  0.13008075  0.05143605  1
  O  O273  1  0.37557164  0.12729860  0.28406794  1
  O  O274  1  0.37966639  0.12108307  0.55008824  1
  O  O275  1  0.38356287  0.12374441  0.78162601  1
  O  O276  1  0.37430054  0.37566156  0.05006994  1
  O  O277  1  0.37658677  0.37187811  0.30064736  1
  O  O278  1  0.38861815  0.37509797  0.53789972  1
  O  O279  1  0.38320799  0.38064418  0.78104381  1
  O  O280  1  0.37155841  0.62119459  0.05444570  1
  O  O281  1  0.37344446  0.61425413  0.28151039  1
  O  O282  1  0.37721031  0.62773574  0.54749802  1
  O  O283  1  0.37983969  0.62291602  0.79774400  1
  O  O284  1  0.37766177  0.87075468  0.04028580  1
  O  O285  1  0.37691147  0.88402024  0.28038478  1
  O  O286  1  0.38062627  0.87546786  0.54934603  1
  O  O287  1  0.38153201  0.86951226  0.78352758  1
  O  O288  1  0.61927273  0.12814698  0.04583556  1
  O  O289  1  0.62543422  0.12530702  0.29559644  1
  O  O290  1  0.63278568  0.12560897  0.53798220  1
  O  O291  1  0.62938214  0.12810501  0.80029675  1
  O  O292  1  0.61982028  0.37482880  0.05494532  1
  O  O293  1  0.62447610  0.37823928  0.28364008  1
  O  O294  1  0.62379051  0.37432152  0.54607114  1
  O  O295  1  0.62676657  0.37534423  0.79917834  1
  O  O296  1  0.62400337  0.61495396  0.03629896  1
  O  O297  1  0.62668805  0.62326958  0.29657039  1
  O  O298  1  0.62806511  0.63035308  0.53534026  1
  O  O299  1  0.62808425  0.62190793  0.80280690  1
  O  O300  1  0.62095788  0.87176562  0.03143998  1
  O  O301  1  0.62535255  0.87556802  0.29410297  1
  O  O302  1  0.62395329  0.87507382  0.54943297  1
  O  O303  1  0.62922834  0.86969553  0.79322490  1
  O  O304  1  0.87591750  0.13151478  0.03621842  1
  O  O305  1  0.87140318  0.12049763  0.28352633  1
  O  O306  1  0.86139301  0.12580405  0.53517781  1
  O  O307  1  0.86692562  0.12996854  0.80092532  1
  O  O308  1  0.88033162  0.37447401  0.03410150  1
  O  O309  1  0.87111437  0.37715159  0.29526179  1
  O  O310  1  0.87297043  0.37594026  0.54595175  1
  O  O311  1  0.87139877  0.37843606  0.80326313  1
  O  O312  1  0.87634318  0.62284230  0.04917884  1
  O  O313  1  0.87211447  0.62084655  0.29874513  1
  O  O314  1  0.86463032  0.62529521  0.53454112  1
  O  O315  1  0.87725052  0.62297849  0.79880676  1
  O  O316  1  0.87730410  0.86960078  0.03818859  1
  O  O317  1  0.87271964  0.88069733  0.28062105  1
  O  O318  1  0.87337754  0.87314233  0.54616221  1
  O  O319  1  0.87326712  0.86724273  0.78908144  1
