# generated using pymatgen
data_VFe(PbO3)2
_symmetry_space_group_name_H-M   'P 1'
_cell_length_a   15.38448492
_cell_length_b   15.39122541
_cell_length_c   18.53007763
_cell_angle_alpha   89.98510141
_cell_angle_beta   90.03782261
_cell_angle_gamma   89.99445083
_symmetry_Int_Tables_number   1
_chemical_formula_structural   VFe(PbO3)2
_chemical_formula_sum   'V32 Fe32 Pb64 O192'
_cell_volume   4387.66323235
_cell_formula_units_Z   32
loop_
 _symmetry_equiv_pos_site_id
 _symmetry_equiv_pos_as_xyz
  1  'x, y, z'
loop_
 _atom_site_type_symbol
 _atom_site_label
 _atom_site_symmetry_multiplicity
 _atom_site_fract_x
 _atom_site_fract_y
 _atom_site_fract_z
 _atom_site_occupancy
  V  V0  1  0.37370907  0.87387695  0.89429906  1
  V  V1  1  0.62555258  0.37393983  0.14087390  1
  V  V2  1  0.37605124  0.37485247  0.14949112  1
  V  V3  1  0.87781783  0.12633694  0.14061261  1
  V  V4  1  0.37430890  0.62582128  0.89130702  1
  V  V5  1  0.11850601  0.62628301  0.38886279  1
  V  V6  1  0.36781562  0.62295658  0.14339896  1
  V  V7  1  0.87628517  0.87356745  0.39352227  1
  V  V8  1  0.62258248  0.62335027  0.13895146  1
  V  V9  1  0.37407990  0.37394054  0.88811911  1
  V  V10  1  0.38030890  0.36987031  0.63000389  1
  V  V11  1  0.88310129  0.37639056  0.88418128  1
  V  V12  1  0.12687591  0.87504710  0.89016534  1
  V  V13  1  0.62577765  0.87422202  0.88928545  1
  V  V14  1  0.87515943  0.12515285  0.39795428  1
  V  V15  1  0.37166847  0.87302018  0.38556568  1
  V  V16  1  0.62584242  0.37375294  0.39304851  1
  V  V17  1  0.62885552  0.62600082  0.38743052  1
  V  V18  1  0.87056144  0.87718349  0.13646958  1
  V  V19  1  0.62531388  0.12662920  0.14104905  1
  V  V20  1  0.37408063  0.62604492  0.38533443  1
  V  V21  1  0.12543707  0.62372392  0.89292181  1
  V  V22  1  0.62543911  0.37627631  0.88729729  1
  V  V23  1  0.12259390  0.37440057  0.14100631  1
  V  V24  1  0.62670758  0.62771172  0.64340023  1
  V  V25  1  0.37807927  0.87204178  0.63648737  1
  V  V26  1  0.62316973  0.87612484  0.63912028  1
  V  V27  1  0.12337843  0.12299777  0.39213488  1
  V  V28  1  0.87925270  0.62455786  0.63796599  1
  V  V29  1  0.37762157  0.62582842  0.63787704  1
  V  V30  1  0.87687161  0.37640864  0.39707978  1
  V  V31  1  0.62550064  0.87449037  0.38846010  1
  Fe  Fe32  1  0.62562717  0.87677695  0.13588653  1
  Fe  Fe33  1  0.12311695  0.12682084  0.13476088  1
  Fe  Fe34  1  0.12320574  0.62271598  0.13531188  1
  Fe  Fe35  1  0.87182873  0.62497484  0.38586073  1
  Fe  Fe36  1  0.12898560  0.62871292  0.63212757  1
  Fe  Fe37  1  0.37662766  0.12099057  0.62646182  1
  Fe  Fe38  1  0.87707668  0.87353416  0.87839513  1
  Fe  Fe39  1  0.87448843  0.12527267  0.63667286  1
  Fe  Fe40  1  0.12957532  0.12303138  0.63675545  1
  Fe  Fe41  1  0.62315645  0.37856510  0.63322826  1
  Fe  Fe42  1  0.12563504  0.87114219  0.63052992  1
  Fe  Fe43  1  0.12639949  0.37895237  0.63043798  1
  Fe  Fe44  1  0.87277883  0.62612395  0.88999825  1
  Fe  Fe45  1  0.37315140  0.12681610  0.13748758  1
  Fe  Fe46  1  0.62181998  0.12655936  0.88457338  1
  Fe  Fe47  1  0.87170734  0.36941988  0.13404701  1
  Fe  Fe48  1  0.62035379  0.62420039  0.88869592  1
  Fe  Fe49  1  0.37795979  0.87555346  0.13609582  1
  Fe  Fe50  1  0.37516538  0.12454566  0.39059868  1
  Fe  Fe51  1  0.37660145  0.12330679  0.88737334  1
  Fe  Fe52  1  0.12313139  0.87601517  0.39074081  1
  Fe  Fe53  1  0.12389092  0.87600992  0.13390226  1
  Fe  Fe54  1  0.12735771  0.12840093  0.88024760  1
  Fe  Fe55  1  0.87417519  0.62144546  0.13329669  1
  Fe  Fe56  1  0.87168028  0.37833179  0.63299496  1
  Fe  Fe57  1  0.37516819  0.37674119  0.38397388  1
  Fe  Fe58  1  0.62156782  0.12605284  0.62665293  1
  Fe  Fe59  1  0.87358929  0.12389484  0.87655774  1
  Fe  Fe60  1  0.87216962  0.87181308  0.64166305  1
  Fe  Fe61  1  0.62952008  0.12288838  0.39803148  1
  Fe  Fe62  1  0.13041311  0.37747843  0.88034362  1
  Fe  Fe63  1  0.12414925  0.37361121  0.39677325  1
  Pb  Pb64  1  0.00470900  0.00389306  -0.00894634  1
  Pb  Pb65  1  0.00636206  -0.00359503  0.25021492  1
  Pb  Pb66  1  -0.00067560  0.00494864  0.51074785  1
  Pb  Pb67  1  -0.00062326  0.00181462  0.73977147  1
  Pb  Pb68  1  0.00763525  0.24431588  -0.00838300  1
  Pb  Pb69  1  0.00771406  0.25871758  0.25583974  1
  Pb  Pb70  1  0.00007638  0.24152052  0.51086305  1
  Pb  Pb71  1  0.00202733  0.24743632  0.73804846  1
  Pb  Pb72  1  -0.00433146  0.50545507  0.00313338  1
  Pb  Pb73  1  -0.00606028  0.50373164  0.24766102  1
  Pb  Pb74  1  0.00162500  0.49300923  0.50452606  1
  Pb  Pb75  1  0.00821094  0.49370292  0.74504423  1
  Pb  Pb76  1  0.00554899  0.75053011  0.00110411  1
  Pb  Pb77  1  0.00166508  0.75076911  0.24656909  1
  Pb  Pb78  1  0.00715569  0.75225987  0.50411087  1
  Pb  Pb79  1  -0.00294179  0.75338535  0.74770983  1
  Pb  Pb80  1  0.25060463  0.00800655  0.00299028  1
  Pb  Pb81  1  0.25070238  0.00221039  0.24294106  1
  Pb  Pb82  1  0.24324912  0.01145468  0.50589454  1
  Pb  Pb83  1  0.24858118  0.01118694  0.74820633  1
  Pb  Pb84  1  0.24757063  0.23885896  0.00010189  1
  Pb  Pb85  1  0.25570019  0.24580402  0.25443804  1
  Pb  Pb86  1  0.24974302  0.25100058  0.49619586  1
  Pb  Pb87  1  0.24245128  0.24611821  0.74502511  1
  Pb  Pb88  1  0.24551406  0.50325750  0.00237240  1
  Pb  Pb89  1  0.24177939  0.48307112  0.26096300  1
  Pb  Pb90  1  0.24609253  0.50130289  0.49725260  1
  Pb  Pb91  1  0.24768039  0.49572364  0.74626596  1
  Pb  Pb92  1  0.24501602  0.75597831  0.00778387  1
  Pb  Pb93  1  0.23728517  0.76121772  0.24998723  1
  Pb  Pb94  1  0.24201986  0.74874813  0.50044027  1
  Pb  Pb95  1  0.24983577  0.75207021  0.74792877  1
  Pb  Pb96  1  0.49884096  -0.00607363  0.00419183  1
  Pb  Pb97  1  0.49459298  0.00748140  0.25134801  1
  Pb  Pb98  1  0.50111495  0.00723207  0.49897718  1
  Pb  Pb99  1  0.49921784  0.01161284  0.75140892  1
  Pb  Pb100  1  0.49298756  0.24269931  0.00075098  1
  Pb  Pb101  1  0.49484220  0.24142854  0.26004362  1
  Pb  Pb102  1  0.50121886  0.24282816  0.49725299  1
  Pb  Pb103  1  0.50246426  0.23741057  0.74610558  1
  Pb  Pb104  1  0.49642194  0.49869061  0.00052549  1
  Pb  Pb105  1  0.49900168  0.49576868  0.25414979  1
  Pb  Pb106  1  0.50498502  0.49716289  0.49841631  1
  Pb  Pb107  1  0.50382748  0.50515027  0.75204078  1
  Pb  Pb108  1  0.49882226  0.75962222  0.00655312  1
  Pb  Pb109  1  0.50145465  0.75325732  0.24791535  1
  Pb  Pb110  1  0.50170974  0.74939492  0.49654851  1
  Pb  Pb111  1  0.50583973  0.74822853  0.75541704  1
  Pb  Pb112  1  0.75210567  0.00179111  -0.00981763  1
  Pb  Pb113  1  0.74415699  0.00805221  0.25474466  1
  Pb  Pb114  1  0.76219462  -0.00218661  0.50984537  1
  Pb  Pb115  1  0.75724988  0.00885388  0.74620775  1
  Pb  Pb116  1  0.75527246  0.25496282  -0.00672032  1
  Pb  Pb117  1  0.74298448  0.24427202  0.25645733  1
  Pb  Pb118  1  0.75714269  0.25203647  0.50848306  1
  Pb  Pb119  1  0.74644270  0.24690795  0.73681831  1
  Pb  Pb120  1  0.75767865  0.49959380  0.00188797  1
  Pb  Pb121  1  0.75707630  0.50204399  0.24894854  1
  Pb  Pb122  1  0.74811420  0.49303990  0.50471840  1
  Pb  Pb123  1  0.75165268  0.50718197  0.75325798  1
  Pb  Pb124  1  0.75327594  0.74635600  -0.00429000  1
  Pb  Pb125  1  0.75628031  0.74365896  0.24722896  1
  Pb  Pb126  1  0.75625576  0.75598643  0.50397337  1
  Pb  Pb127  1  0.75823110  0.74641179  0.75867893  1
  O  O128  1  0.12065860  0.00098037  0.16414501  1
  O  O129  1  0.12089011  0.00384262  0.41347998  1
  O  O130  1  0.13074745  -0.00640108  0.66064706  1
  O  O131  1  0.12847944  -0.00754323  0.90787282  1
  O  O132  1  0.12415147  0.25650531  0.16686843  1
  O  O133  1  0.12247698  0.24151955  0.41684355  1
  O  O134  1  0.13248746  0.25423277  0.65554712  1
  O  O135  1  0.12693461  0.25466126  0.90996692  1
  O  O136  1  0.12489567  0.49249793  0.16619257  1
  O  O137  1  0.12431400  0.50969583  0.41294377  1
  O  O138  1  0.13147178  0.50521809  0.66198824  1
  O  O139  1  0.12866223  0.50457263  0.91402367  1
  O  O140  1  0.12109023  0.74965412  0.16515800  1
  O  O141  1  0.12456781  0.74494328  0.41298901  1
  O  O142  1  0.12910550  0.74907044  0.66872885  1
  O  O143  1  0.12820632  0.74758715  0.91647592  1
  O  O144  1  0.37876076  0.00141661  0.16478613  1
  O  O145  1  0.37953379  -0.01349517  0.40812748  1
  O  O146  1  0.38177272  -0.01259070  0.65554923  1
  O  O147  1  0.37332353  -0.00888435  0.91456728  1
  O  O148  1  0.37755089  0.25323921  0.17016397  1
  O  O149  1  0.37503098  0.25182614  0.41213577  1
  O  O150  1  0.37954104  0.25521439  0.63892033  1
  O  O151  1  0.37499422  0.25798684  0.91186994  1
  O  O152  1  0.37852326  0.50533157  0.17254039  1
  O  O153  1  0.37829839  0.50756802  0.41093383  1
  O  O154  1  0.38009670  0.51186689  0.65974877  1
  O  O155  1  0.37471070  0.50024371  0.91733290  1
  O  O156  1  0.38034697  0.73880571  0.16461733  1
  O  O157  1  0.38019270  0.75165450  0.41454505  1
  O  O158  1  0.38233651  0.74930109  0.66800361  1
  O  O159  1  0.37274223  0.75110387  0.91838149  1
  O  O160  1  0.62723664  0.00840165  0.16496719  1
  O  O161  1  0.62728147  -0.01181430  0.41259995  1
  O  O162  1  0.61878796  -0.00874714  0.65478831  1
  O  O163  1  0.61943518  -0.00733037  0.91182590  1
  O  O164  1  0.62649849  0.24659863  0.16906810  1
  O  O165  1  0.62793298  0.25816588  0.41511557  1
  O  O166  1  0.61865636  0.25237310  0.65499929  1
  O  O167  1  0.61926252  0.26061122  0.91367651  1
  O  O168  1  0.62518333  0.50113328  0.16575320  1
  O  O169  1  0.62754527  0.49963664  0.41247272  1
  O  O170  1  0.61936869  0.50925825  0.66581887  1
  O  O171  1  0.61810920  0.49176726  0.91638405  1
  O  O172  1  0.62643306  0.74214041  0.16123156  1
  O  O173  1  0.62900137  0.75283415  0.41485961  1
  O  O174  1  0.62239117  0.74616025  0.66921573  1
  O  O175  1  0.61973808  0.75610175  0.91430779  1
  O  O176  1  0.87130951  0.00563772  0.16645467  1
  O  O177  1  0.87392617  -0.00473901  0.41914029  1
  O  O178  1  0.87163654  -0.00231286  0.66122576  1
  O  O179  1  0.87438268  -0.00264967  0.90905617  1
  O  O180  1  0.87196180  0.24238396  0.16703251  1
  O  O181  1  0.87495491  0.25302317  0.42146946  1
  O  O182  1  0.87354982  0.25276349  0.65788067  1
  O  O183  1  0.87142686  0.25938755  0.90638649  1
  O  O184  1  0.87212701  0.49480042  0.16448557  1
  O  O185  1  0.87413287  0.49556522  0.41349167  1
  O  O186  1  0.87073133  0.51013911  0.66390499  1
  O  O187  1  0.87146691  0.49250889  0.91338776  1
  O  O188  1  0.87009950  0.75753149  0.15506774  1
  O  O189  1  0.87110116  0.75452528  0.41411712  1
  O  O190  1  0.86753923  0.74030263  0.66489813  1
  O  O191  1  0.87462266  0.75241175  0.91590407  1
  O  O192  1  -0.00711470  0.12635869  0.16426548  1
  O  O193  1  0.00097696  0.12367105  0.42222651  1
  O  O194  1  0.00282066  0.12452584  0.65844124  1
  O  O195  1  -0.00006870  0.12614719  0.90752101  1
  O  O196  1  0.00356736  0.37294224  0.16290553  1
  O  O197  1  -0.00588748  0.37496253  0.41833289  1
  O  O198  1  -0.00016649  0.38236709  0.65783237  1
  O  O199  1  -0.00246835  0.37893559  0.90330188  1
  O  O200  1  -0.00200583  0.62236762  0.16401613  1
  O  O201  1  0.00196440  0.62750546  0.40991554  1
  O  O202  1  -0.00479447  0.62721918  0.65654525  1
  O  O203  1  0.00707892  0.62351985  0.91212283  1
  O  O204  1  -0.01283011  0.87878051  0.16335296  1
  O  O205  1  -0.00764924  0.87345139  0.41380171  1
  O  O206  1  -0.00024478  0.86793149  0.66001676  1
  O  O207  1  0.00864418  0.87106362  0.90700879  1
  O  O208  1  0.24720610  0.12792216  0.16576865  1
  O  O209  1  0.24323242  0.12070344  0.40943478  1
  O  O210  1  0.25769202  0.12227579  0.66125002  1
  O  O211  1  0.25118503  0.12335786  0.91534411  1
  O  O212  1  0.24708557  0.37563543  0.16871274  1
  O  O213  1  0.25089435  0.37914168  0.41503627  1
  O  O214  1  0.26688557  0.38347548  0.65811111  1
  O  O215  1  0.25824827  0.38028145  0.91301734  1
  O  O216  1  0.25370550  0.62233912  0.16243557  1
  O  O217  1  0.25012622  0.62805464  0.40955306  1
  O  O218  1  0.26102484  0.63150197  0.65968899  1
  O  O219  1  0.24950738  0.62556495  0.92012235  1
  O  O220  1  0.25169176  0.87256272  0.16231553  1
  O  O221  1  0.25686279  0.86867043  0.40499527  1
  O  O222  1  0.26273938  0.86674966  0.65710184  1
  O  O223  1  0.24999715  0.87073480  0.91767602  1
  O  O224  1  0.50788809  0.12848286  0.16299303  1
  O  O225  1  0.50151055  0.12217890  0.41250996  1
  O  O226  1  0.49753553  0.12181009  0.66053969  1
  O  O227  1  0.50008769  0.12584074  0.92013230  1
  O  O228  1  0.50387558  0.37594888  0.17260059  1
  O  O229  1  0.50657126  0.37912089  0.41024695  1
  O  O230  1  0.49094756  0.38358616  0.66327603  1
  O  O231  1  0.49361291  0.37753235  0.91635480  1
  O  O232  1  0.50517884  0.62143608  0.16642230  1
  O  O233  1  0.50460350  0.62797074  0.41198898  1
  O  O234  1  0.49990192  0.62947524  0.66720513  1
  O  O235  1  0.49388844  0.62502771  0.91994477  1
  O  O236  1  0.50333307  0.87318877  0.16947579  1
  O  O237  1  0.50547286  0.86860513  0.40873961  1
  O  O238  1  0.50313792  0.86668973  0.66735851  1
  O  O239  1  0.49555986  0.87259622  0.91451807  1
  O  O240  1  0.74943934  0.12642525  0.16777176  1
  O  O241  1  0.75645455  0.12487994  0.42074361  1
  O  O242  1  0.74481918  0.12310142  0.65450159  1
  O  O243  1  0.74784943  0.12695905  0.91072883  1
  O  O244  1  0.74399689  0.37117194  0.16676386  1
  O  O245  1  0.75014398  0.37603024  0.41739718  1
  O  O246  1  0.74676709  0.38170900  0.66397992  1
  O  O247  1  0.74336080  0.37645081  0.90543184  1
  O  O248  1  0.74391002  0.62244925  0.16233632  1
  O  O249  1  0.74614301  0.62501096  0.41721045  1
  O  O250  1  0.74470273  0.62479946  0.66240422  1
  O  O251  1  0.74455166  0.62358306  0.91761336  1
  O  O252  1  0.75434721  0.87991109  0.16467934  1
  O  O253  1  0.74937006  0.87410521  0.41727504  1
  O  O254  1  0.73685561  0.86915104  0.66426549  1
  O  O255  1  0.74296906  0.87383117  0.90687898  1
  O  O256  1  0.12236753  0.12967697  0.03439710  1
  O  O257  1  0.11485403  0.12593258  0.30101689  1
  O  O258  1  0.13019375  0.11699395  0.53494391  1
  O  O259  1  0.13757471  0.12781355  0.77954968  1
  O  O260  1  0.12590585  0.37535031  0.05014443  1
  O  O261  1  0.12163355  0.37358809  0.29584227  1
  O  O262  1  0.12630692  0.38516069  0.52818978  1
  O  O263  1  0.13404415  0.38290808  0.78052236  1
  O  O264  1  0.12345578  0.62159908  0.03565863  1
  O  O265  1  0.12071398  0.62673735  0.29721165  1
  O  O266  1  0.12798495  0.63457669  0.53243527  1
  O  O267  1  0.13024801  0.62645422  0.80215827  1
  O  O268  1  0.12162543  0.86951405  0.03370547  1
  O  O269  1  0.11962941  0.87058798  0.29033566  1
  O  O270  1  0.12656379  0.86266334  0.52856524  1
  O  O271  1  0.13459894  0.86816949  0.79975314  1
  O  O272  1  0.37025965  0.13117251  0.03682230  1
  O  O273  1  0.37928072  0.12667585  0.28852318  1
  O  O274  1  0.37224508  0.11361801  0.52496195  1
  O  O275  1  0.38168969  0.12116183  0.78672722  1
  O  O276  1  0.37636926  0.37986985  0.05859948  1
  O  O277  1  0.37253374  0.37923737  0.28328295  1
  O  O278  1  0.38324526  0.38714212  0.53939549  1
  O  O279  1  0.37574034  0.37473636  0.79746553  1
  O  O280  1  0.37280707  0.61859183  0.05237847  1
  O  O281  1  0.37491746  0.62847363  0.29473924  1
  O  O282  1  0.38146966  0.63003998  0.54682768  1
  O  O283  1  0.37362827  0.62586762  0.80041276  1
  O  O284  1  0.38258213  0.87211375  0.03592739  1
  O  O285  1  0.37759205  0.86877062  0.29426642  1
  O  O286  1  0.38385269  0.86605365  0.54567993  1
  O  O287  1  0.37198004  0.87215241  0.80368815  1
  O  O288  1  0.62838225  0.12901271  0.05040966  1
  O  O289  1  0.63547319  0.12574959  0.29622005  1
  O  O290  1  0.61622156  0.12243736  0.52489720  1
  O  O291  1  0.61223039  0.12734755  0.78463342  1
  O  O292  1  0.62271222  0.37267293  0.05005170  1
  O  O293  1  0.62984357  0.37368191  0.30191153  1
  O  O294  1  0.62333817  0.38785918  0.53316805  1
  O  O295  1  0.61763832  0.37864061  0.79651481  1
  O  O296  1  0.62050278  0.62048707  0.04820942  1
  O  O297  1  0.63067919  0.62736078  0.29634430  1
  O  O298  1  0.62341914  0.62951897  0.55241223  1
  O  O299  1  0.61794142  0.62134972  0.78895004  1
  O  O300  1  0.61786176  0.87660422  0.03666846  1
  O  O301  1  0.63001743  0.87283405  0.29744194  1
  O  O302  1  0.62143976  0.86771827  0.54788765  1
  O  O303  1  0.61955015  0.87261634  0.79842261  1
  O  O304  1  0.87469024  0.12589694  0.04968722  1
  O  O305  1  0.87960942  0.12593605  0.30684137  1
  O  O306  1  0.88127080  0.12156085  0.53374165  1
  O  O307  1  0.87109085  0.12283590  0.77655035  1
  O  O308  1  0.87035229  0.37082282  0.03474852  1
  O  O309  1  0.87501066  0.37077033  0.30589633  1
  O  O310  1  0.86830669  0.38171194  0.53229395  1
  O  O311  1  0.87784147  0.38143132  0.79340174  1
  O  O312  1  0.87457386  0.61383069  0.03238490  1
  O  O313  1  0.86534351  0.62497582  0.28617834  1
  O  O314  1  0.87326840  0.62567568  0.54674803  1
  O  O315  1  0.86612655  0.62530052  0.78993229  1
  O  O316  1  0.87130488  0.88345374  0.04590689  1
  O  O317  1  0.87221214  0.87691104  0.30270232  1
  O  O318  1  0.86344974  0.87194316  0.54023826  1
  O  O319  1  0.87122515  0.86540970  0.77791127  1
