# generated using pymatgen
data_VFe(PbO3)2
_symmetry_space_group_name_H-M   'P 1'
_cell_length_a   15.37694136
_cell_length_b   15.37735248
_cell_length_c   18.49468929
_cell_angle_alpha   89.97604263
_cell_angle_beta   89.97623240
_cell_angle_gamma   90.00074849
_symmetry_Int_Tables_number   1
_chemical_formula_structural   VFe(PbO3)2
_chemical_formula_sum   'V32 Fe32 Pb64 O192'
_cell_volume   4373.19146365
_cell_formula_units_Z   32
loop_
 _symmetry_equiv_pos_site_id
 _symmetry_equiv_pos_as_xyz
  1  'x, y, z'
loop_
 _atom_site_type_symbol
 _atom_site_label
 _atom_site_symmetry_multiplicity
 _atom_site_fract_x
 _atom_site_fract_y
 _atom_site_fract_z
 _atom_site_occupancy
  V  V0  1  0.37485899  0.12680496  0.64101286  1
  V  V1  1  0.87896344  0.62478747  0.38738412  1
  V  V2  1  0.62399238  0.37472706  0.14083338  1
  V  V3  1  0.62447690  0.61817359  0.63702429  1
  V  V4  1  0.62619501  0.87267547  0.14166530  1
  V  V5  1  0.37880799  0.87669017  0.88860451  1
  V  V6  1  0.62273355  0.12201581  0.89230573  1
  V  V7  1  0.12493972  0.12032422  0.13437185  1
  V  V8  1  0.62384718  0.36925502  0.63738615  1
  V  V9  1  0.12151916  0.37345111  0.64499372  1
  V  V10  1  0.37511435  0.62517681  0.89235123  1
  V  V11  1  0.62310946  0.37361097  0.89482888  1
  V  V12  1  0.62620698  0.62594718  0.14261788  1
  V  V13  1  0.37000007  0.62617521  0.38850276  1
  V  V14  1  0.37033960  0.12497248  0.38360992  1
  V  V15  1  0.12308826  0.37793653  0.38639396  1
  V  V16  1  0.87815742  0.12481855  0.38259577  1
  V  V17  1  0.36982149  0.37433317  0.38263441  1
  V  V18  1  0.12830124  0.12863996  0.88972721  1
  V  V19  1  0.37640552  0.37398114  0.64036903  1
  V  V20  1  0.62386266  0.62212768  0.88851222  1
  V  V21  1  0.12616218  0.62384206  0.88757367  1
  V  V22  1  0.37869098  0.37334323  0.89806659  1
  V  V23  1  0.12287343  0.87300555  0.39135276  1
  V  V24  1  0.62427272  0.87580719  0.63998999  1
  V  V25  1  0.87457687  0.12724246  0.64081503  1
  V  V26  1  0.12659644  0.62594394  0.64022024  1
  V  V27  1  0.12715481  0.87454086  0.89037110  1
  V  V28  1  0.87987637  0.87244629  0.13779184  1
  V  V29  1  0.62652384  0.12662343  0.63779267  1
  V  V30  1  0.12434602  0.62955404  0.13499573  1
  V  V31  1  0.37461506  0.87267263  0.14183288  1
  Fe  Fe32  1  0.87193560  0.87553368  0.87995807  1
  Fe  Fe33  1  0.12297161  0.13056894  0.63607935  1
  Fe  Fe34  1  0.12270588  0.62526504  0.38666757  1
  Fe  Fe35  1  0.87046110  0.37321048  0.63764003  1
  Fe  Fe36  1  0.62688933  0.62406046  0.38490719  1
  Fe  Fe37  1  0.62456097  0.12081565  0.14686515  1
  Fe  Fe38  1  0.87262275  0.37488572  0.89112017  1
  Fe  Fe39  1  0.87530960  0.37798057  0.13764086  1
  Fe  Fe40  1  0.37490389  0.87527532  0.63174417  1
  Fe  Fe41  1  0.87315451  0.62859782  0.13291511  1
  Fe  Fe42  1  0.87479023  0.62466260  0.88174946  1
  Fe  Fe43  1  0.87411356  0.12150665  0.12886186  1
  Fe  Fe44  1  0.12596068  0.87438976  0.12871053  1
  Fe  Fe45  1  0.37230683  0.87619792  0.38731470  1
  Fe  Fe46  1  0.37732885  0.62747938  0.13563798  1
  Fe  Fe47  1  0.37534980  0.12419831  0.89488993  1
  Fe  Fe48  1  0.12586030  0.88073894  0.63754994  1
  Fe  Fe49  1  0.62649560  0.12582017  0.37549524  1
  Fe  Fe50  1  0.37505586  0.62161164  0.63574818  1
  Fe  Fe51  1  0.87547560  0.62225112  0.64546677  1
  Fe  Fe52  1  0.87625867  0.87643284  0.64056448  1
  Fe  Fe53  1  0.12695128  0.37653759  0.89685034  1
  Fe  Fe54  1  0.12376531  0.12390374  0.38706383  1
  Fe  Fe55  1  0.62230016  0.87236359  0.88316936  1
  Fe  Fe56  1  0.62564044  0.87331205  0.38556807  1
  Fe  Fe57  1  0.12624350  0.37722860  0.12444268  1
  Fe  Fe58  1  0.87610135  0.87586268  0.38504970  1
  Fe  Fe59  1  0.37447360  0.37782962  0.13506866  1
  Fe  Fe60  1  0.62458242  0.37755672  0.37919145  1
  Fe  Fe61  1  0.87603721  0.12558963  0.89677671  1
  Fe  Fe62  1  0.87880115  0.37432743  0.37870016  1
  Fe  Fe63  1  0.37554466  0.12320801  0.13238119  1
  Pb  Pb64  1  -0.00031679  -0.00232430  -0.00486052  1
  Pb  Pb65  1  0.00652615  0.00576195  0.24982015  1
  Pb  Pb66  1  0.00067708  -0.00822848  0.50409271  1
  Pb  Pb67  1  -0.00498255  0.00194322  0.75022304  1
  Pb  Pb68  1  -0.00935259  0.25858674  0.00247204  1
  Pb  Pb69  1  -0.00332946  0.25345339  0.23982430  1
  Pb  Pb70  1  0.00298506  0.24622915  0.49822801  1
  Pb  Pb71  1  -0.01352804  0.25064549  0.76217320  1
  Pb  Pb72  1  -0.01126357  0.49623951  0.00065842  1
  Pb  Pb73  1  -0.00409339  0.49759872  0.24233551  1
  Pb  Pb74  1  -0.01436489  0.50019322  0.50676245  1
  Pb  Pb75  1  -0.00581817  0.49561118  0.75570291  1
  Pb  Pb76  1  -0.00447576  0.74766657  -0.00620170  1
  Pb  Pb77  1  0.00558465  0.74552151  0.25023430  1
  Pb  Pb78  1  -0.00973548  0.75054128  0.50671675  1
  Pb  Pb79  1  -0.00681189  0.75350791  0.74862734  1
  Pb  Pb80  1  0.24768745  -0.00332960  0.00075585  1
  Pb  Pb81  1  0.25048307  -0.00206558  0.25036501  1
  Pb  Pb82  1  0.24416582  -0.00712885  0.50371863  1
  Pb  Pb83  1  0.24968816  0.00389203  0.74735402  1
  Pb  Pb84  1  0.25270029  0.25744447  0.00594576  1
  Pb  Pb85  1  0.24722936  0.24878425  0.23942841  1
  Pb  Pb86  1  0.24356047  0.24582619  0.49961796  1
  Pb  Pb87  1  0.24512508  0.25566733  0.75836649  1
  Pb  Pb88  1  0.25457215  0.49826325  0.00585509  1
  Pb  Pb89  1  0.24778815  0.50325566  0.24125547  1
  Pb  Pb90  1  0.25256232  0.50422856  0.50022598  1
  Pb  Pb91  1  0.24447394  0.49279001  0.75632190  1
  Pb  Pb92  1  0.24963289  0.74997037  0.00157070  1
  Pb  Pb93  1  0.24981641  0.75091817  0.25134082  1
  Pb  Pb94  1  0.24893012  0.75781277  0.50420653  1
  Pb  Pb95  1  0.25592567  0.75346287  0.74474055  1
  Pb  Pb96  1  0.50559081  0.01095370  0.01096989  1
  Pb  Pb97  1  0.49983825  -0.00618273  0.25293687  1
  Pb  Pb98  1  0.49960035  -0.00209364  0.49155666  1
  Pb  Pb99  1  0.49949617  0.00231982  0.75098833  1
  Pb  Pb100  1  0.50194066  0.24024332  0.01296255  1
  Pb  Pb101  1  0.50032570  0.24439847  0.24621942  1
  Pb  Pb102  1  0.50147809  0.25062513  0.48841630  1
  Pb  Pb103  1  0.49464671  0.24157385  0.75630754  1
  Pb  Pb104  1  0.49353581  0.50103255  0.00796837  1
  Pb  Pb105  1  0.50683740  0.50219201  0.25245874  1
  Pb  Pb106  1  0.49715092  0.50225278  0.49445997  1
  Pb  Pb107  1  0.50040533  0.49659242  0.74934113  1
  Pb  Pb108  1  0.49566116  0.74499212  0.00184464  1
  Pb  Pb109  1  0.50715421  0.75113501  0.25695638  1
  Pb  Pb110  1  0.49510556  0.75078269  0.49618263  1
  Pb  Pb111  1  0.50374016  0.75459137  0.74631553  1
  Pb  Pb112  1  0.75287723  -0.00006594  -0.00137412  1
  Pb  Pb113  1  0.75383337  -0.00807555  0.25028791  1
  Pb  Pb114  1  0.75173502  -0.00253169  0.49309481  1
  Pb  Pb115  1  0.75084564  -0.00430318  0.75374665  1
  Pb  Pb116  1  0.75479479  0.24631520  0.00758717  1
  Pb  Pb117  1  0.75282345  0.24676459  0.24311455  1
  Pb  Pb118  1  0.75226906  0.25590277  0.48825965  1
  Pb  Pb119  1  0.75703559  0.24805223  0.75774540  1
  Pb  Pb120  1  0.75897264  0.50311404  0.00331000  1
  Pb  Pb121  1  0.74916491  0.49728544  0.25126951  1
  Pb  Pb122  1  0.75613781  0.49503053  0.49564655  1
  Pb  Pb123  1  0.75992972  0.49653823  0.75419888  1
  Pb  Pb124  1  0.75497523  0.75010626  -0.00666728  1
  Pb  Pb125  1  0.74984041  0.75658335  0.25587252  1
  Pb  Pb126  1  0.75439673  0.75041454  0.49803899  1
  Pb  Pb127  1  0.75278763  0.75473370  0.74929556  1
  O  O128  1  0.12541406  -0.00067974  0.16260712  1
  O  O129  1  0.12459144  -0.00591308  0.41366408  1
  O  O130  1  0.12661445  0.00779352  0.66794167  1
  O  O131  1  0.12983472  0.00050003  0.91317727  1
  O  O132  1  0.12547566  0.24015554  0.15156721  1
  O  O133  1  0.12647552  0.25713325  0.41379491  1
  O  O134  1  0.12986336  0.25603363  0.67033072  1
  O  O135  1  0.13104555  0.24299999  0.91389841  1
  O  O136  1  0.12552624  0.51011986  0.15274780  1
  O  O137  1  0.12802065  0.49349544  0.41144580  1
  O  O138  1  0.12871632  0.49356436  0.66908526  1
  O  O139  1  0.13141373  0.51011663  0.91341770  1
  O  O140  1  0.12586747  0.75007003  0.16302701  1
  O  O141  1  0.12365201  0.75504326  0.41628679  1
  O  O142  1  0.12693288  0.74248014  0.65988906  1
  O  O143  1  0.13008416  0.74611420  0.91373691  1
  O  O144  1  0.37738469  -0.00858060  0.16380920  1
  O  O145  1  0.37129232  0.00885718  0.40922024  1
  O  O146  1  0.37761950  0.00788227  0.66161679  1
  O  O147  1  0.37656461  -0.00862767  0.91164792  1
  O  O148  1  0.37306932  0.24986618  0.15970210  1
  O  O149  1  0.37164291  0.24816728  0.40979653  1
  O  O150  1  0.37949980  0.24868665  0.66893127  1
  O  O151  1  0.37976424  0.25634931  0.91710227  1
  O  O152  1  0.37421853  0.50407770  0.16511667  1
  O  O153  1  0.36983218  0.50002403  0.41134066  1
  O  O154  1  0.37873884  0.49480059  0.66817933  1
  O  O155  1  0.37793671  0.50022015  0.91849844  1
  O  O156  1  0.37702676  0.75474560  0.16743996  1
  O  O157  1  0.37041744  0.74351482  0.41065367  1
  O  O158  1  0.37574750  0.74822564  0.66262979  1
  O  O159  1  0.37637395  0.75166561  0.91570291  1
  O  O160  1  0.62376365  -0.01154569  0.16368061  1
  O  O161  1  0.62472894  0.00354594  0.41142773  1
  O  O162  1  0.62356812  0.00093385  0.66519980  1
  O  O163  1  0.62174038  0.00510451  0.91149337  1
  O  O164  1  0.62424137  0.25745362  0.15873074  1
  O  O165  1  0.62332600  0.24980129  0.40878646  1
  O  O166  1  0.62249738  0.24702095  0.66732722  1
  O  O167  1  0.61976203  0.25453436  0.91647553  1
  O  O168  1  0.62461982  0.50510607  0.16229726  1
  O  O169  1  0.62259379  0.50045318  0.41555861  1
  O  O170  1  0.62039029  0.50008912  0.65902366  1
  O  O171  1  0.62019117  0.50231633  0.91769017  1
  O  O172  1  0.62434929  0.75129601  0.16672277  1
  O  O173  1  0.62481652  0.74674450  0.41931575  1
  O  O174  1  0.62395498  0.75359623  0.65871392  1
  O  O175  1  0.62108511  0.74027115  0.91100125  1
  O  O176  1  0.87146314  -0.00997293  0.15944621  1
  O  O177  1  0.87741210  0.00721239  0.41108011  1
  O  O178  1  0.87321975  0.00909064  0.66527607  1
  O  O179  1  0.87277285  -0.00155773  0.91347390  1
  O  O180  1  0.87663669  0.24846547  0.15674485  1
  O  O181  1  0.87807749  0.24463108  0.40700987  1
  O  O182  1  0.87094095  0.24640631  0.66801127  1
  O  O183  1  0.87087586  0.25132745  0.92134535  1
  O  O184  1  0.87538042  0.50555011  0.16282545  1
  O  O185  1  0.87893580  0.50382855  0.41049650  1
  O  O186  1  0.87447928  0.49554977  0.67033446  1
  O  O187  1  0.87274737  0.50172126  0.91339806  1
  O  O188  1  0.87159521  0.75567782  0.16424642  1
  O  O189  1  0.87872410  0.74449550  0.41350279  1
  O  O190  1  0.87476393  0.74881757  0.66523986  1
  O  O191  1  0.87438833  0.74945846  0.90847364  1
  O  O192  1  0.00448316  0.11793013  0.15752462  1
  O  O193  1  -0.00490233  0.12627972  0.41428331  1
  O  O194  1  -0.00758012  0.13036604  0.66437179  1
  O  O195  1  0.01100836  0.12329005  0.91467951  1
  O  O196  1  0.00550188  0.37623298  0.15713230  1
  O  O197  1  0.00694979  0.37461514  0.40932268  1
  O  O198  1  0.00553453  0.37300413  0.66348585  1
  O  O199  1  0.00024958  0.37507220  0.91289802  1
  O  O200  1  0.00519624  0.63204515  0.15933230  1
  O  O201  1  -0.00388608  0.62412559  0.41705232  1
  O  O202  1  0.01138273  0.61823863  0.66854842  1
  O  O203  1  0.00838010  0.62735819  0.90650025  1
  O  O204  1  -0.00404831  0.87268941  0.15385966  1
  O  O205  1  0.00380444  0.87543973  0.41448888  1
  O  O206  1  0.00236932  0.87770199  0.66916149  1
  O  O207  1  0.00465121  0.87403294  0.90799511  1
  O  O208  1  0.24566770  0.11849366  0.15844216  1
  O  O209  1  0.25359067  0.12813763  0.41299006  1
  O  O210  1  0.25852073  0.13013059  0.66205790  1
  O  O211  1  0.24663777  0.12230082  0.91635274  1
  O  O212  1  0.24539554  0.37628168  0.16189761  1
  O  O213  1  0.24838864  0.37413688  0.41512672  1
  O  O214  1  0.25318472  0.37347066  0.66992017  1
  O  O215  1  0.26069004  0.37698182  0.91624823  1
  O  O216  1  0.24492099  0.63106287  0.15968908  1
  O  O217  1  0.25170865  0.62313982  0.41576017  1
  O  O218  1  0.24406317  0.61870771  0.66554275  1
  O  O219  1  0.25147669  0.62720497  0.91538008  1
  O  O220  1  0.25528644  0.87357973  0.16008766  1
  O  O221  1  0.24397881  0.87461064  0.41571338  1
  O  O222  1  0.25183591  0.87728541  0.66733097  1
  O  O223  1  0.25686860  0.87208275  0.91533140  1
  O  O224  1  0.49660833  0.12207797  0.16826230  1
  O  O225  1  0.49030696  0.12745015  0.40555737  1
  O  O226  1  0.49967411  0.12589055  0.66711897  1
  O  O227  1  0.50596949  0.12736438  0.92035389  1
  O  O228  1  0.50555613  0.38038562  0.16202240  1
  O  O229  1  0.49089807  0.37505015  0.40900946  1
  O  O230  1  0.50100788  0.37286299  0.66968766  1
  O  O231  1  0.50183059  0.37936117  0.92250084  1
  O  O232  1  0.50677911  0.62877206  0.16571824  1
  O  O233  1  0.48923438  0.62247819  0.41067384  1
  O  O234  1  0.50777488  0.62565563  0.66546740  1
  O  O235  1  0.50099113  0.62361505  0.91761723  1
  O  O236  1  0.50195472  0.87127909  0.16463994  1
  O  O237  1  0.49817968  0.87496779  0.41393985  1
  O  O238  1  0.50344066  0.87751021  0.66226418  1
  O  O239  1  0.49469393  0.87048294  0.91216292  1
  O  O240  1  0.75198027  0.12260040  0.16263517  1
  O  O241  1  0.75844553  0.12633316  0.40404321  1
  O  O242  1  0.75009318  0.12582511  0.66566373  1
  O  O243  1  0.73826790  0.12904433  0.91621204  1
  O  O244  1  0.74340818  0.38018912  0.16219518  1
  O  O245  1  0.75296608  0.37576486  0.40792506  1
  O  O246  1  0.74144571  0.37344110  0.66477730  1
  O  O247  1  0.73806761  0.37712648  0.91694593  1
  O  O248  1  0.74351262  0.62876089  0.16375647  1
  O  O249  1  0.76014203  0.62384975  0.41020221  1
  O  O250  1  0.73847464  0.62386900  0.66430277  1
  O  O251  1  0.74127119  0.62223798  0.90832347  1
  O  O252  1  0.74681018  0.87123155  0.16285708  1
  O  O253  1  0.75198565  0.87431601  0.41702329  1
  O  O254  1  0.74318850  0.87858833  0.66276929  1
  O  O255  1  0.74564390  0.87349220  0.91298978  1
  O  O256  1  0.12667524  0.11407604  0.04354008  1
  O  O257  1  0.12059172  0.11748506  0.28754791  1
  O  O258  1  0.12287388  0.13708622  0.53578280  1
  O  O259  1  0.12894309  0.12857353  0.79798940  1
  O  O260  1  0.13567590  0.37489184  0.02313260  1
  O  O261  1  0.12649655  0.37553372  0.29527306  1
  O  O262  1  0.12656457  0.37407361  0.55406181  1
  O  O263  1  0.13723797  0.37534050  0.79511123  1
  O  O264  1  0.12457302  0.63468547  0.04372682  1
  O  O265  1  0.12174224  0.63309677  0.28766461  1
  O  O266  1  0.12540727  0.61994457  0.54894531  1
  O  O267  1  0.13101739  0.62359242  0.79661034  1
  O  O268  1  0.13143500  0.87577714  0.02926224  1
  O  O269  1  0.12454334  0.87274756  0.29938889  1
  O  O270  1  0.12783850  0.88114678  0.53717974  1
  O  O271  1  0.13382325  0.87455789  0.79920425  1
  O  O272  1  0.38507824  0.12058456  0.03099046  1
  O  O273  1  0.36656392  0.12500808  0.29219214  1
  O  O274  1  0.37861778  0.13028826  0.55044042  1
  O  O275  1  0.38373742  0.12736763  0.79506709  1
  O  O276  1  0.37230630  0.38204812  0.03441652  1
  O  O277  1  0.36761665  0.37469764  0.29168859  1
  O  O278  1  0.37518817  0.37239822  0.54951794  1
  O  O279  1  0.38329895  0.37678371  0.80657449  1
  O  O280  1  0.38089264  0.62944539  0.03525860  1
  O  O281  1  0.36780424  0.62562532  0.29713061  1
  O  O282  1  0.37394255  0.61637630  0.53677199  1
  O  O283  1  0.37753947  0.62358419  0.80128227  1
  O  O284  1  0.37965624  0.87130674  0.05052813  1
  O  O285  1  0.37003400  0.87823873  0.28745572  1
  O  O286  1  0.36811419  0.87624030  0.53150092  1
  O  O287  1  0.37623918  0.87356862  0.79703815  1
  O  O288  1  0.61372406  0.12131851  0.04409722  1
  O  O289  1  0.62267851  0.12849819  0.27486401  1
  O  O290  1  0.62547999  0.12736794  0.54706876  1
  O  O291  1  0.61962510  0.12567000  0.80075738  1
  O  O292  1  0.62478464  0.37977433  0.04953775  1
  O  O293  1  0.62436904  0.38513404  0.27954292  1
  O  O294  1  0.62107323  0.36771223  0.54628879  1
  O  O295  1  0.62028250  0.37593975  0.80394262  1
  O  O296  1  0.62468594  0.62873932  0.05133068  1
  O  O297  1  0.62115776  0.62496063  0.28507324  1
  O  O298  1  0.62334750  0.62070441  0.54609425  1
  O  O299  1  0.61966075  0.61890860  0.79753102  1
  O  O300  1  0.62555304  0.87000302  0.05048680  1
  O  O301  1  0.62800913  0.86851134  0.28477457  1
  O  O302  1  0.62400684  0.88030919  0.54908193  1
  O  O303  1  0.62270913  0.87493715  0.78341662  1
  O  O304  1  0.87176536  0.12187175  0.02740377  1
  O  O305  1  0.88386837  0.12253929  0.29103939  1
  O  O306  1  0.87397976  0.12872809  0.55007875  1
  O  O307  1  0.87508510  0.13633654  0.79513463  1
  O  O308  1  0.87458887  0.38200088  0.03476931  1
  O  O309  1  0.88230055  0.37661425  0.27833142  1
  O  O310  1  0.87317986  0.37919385  0.53751419  1
  O  O311  1  0.86872148  0.36764085  0.78870494  1
  O  O312  1  0.87392188  0.62709575  0.03238886  1
  O  O313  1  0.88279836  0.62673944  0.29598457  1
  O  O314  1  0.88238374  0.61799792  0.54446785  1
  O  O315  1  0.87432152  0.61848696  0.78048960  1
  O  O316  1  0.87126045  0.86999429  0.04607834  1
  O  O317  1  0.86963213  0.87578025  0.28535412  1
  O  O318  1  0.88199509  0.87698465  0.53946776  1
  O  O319  1  0.86801852  0.87824564  0.77864119  1
