# generated using pymatgen
data_VFe(PbO3)2
_symmetry_space_group_name_H-M   'P 1'
_cell_length_a   15.38204583
_cell_length_b   15.37228137
_cell_length_c   18.57397939
_cell_angle_alpha   89.96014884
_cell_angle_beta   89.99842814
_cell_angle_gamma   89.99284662
_symmetry_Int_Tables_number   1
_chemical_formula_structural   VFe(PbO3)2
_chemical_formula_sum   'V32 Fe32 Pb64 O192'
_cell_volume   4391.94888080
_cell_formula_units_Z   32
loop_
 _symmetry_equiv_pos_site_id
 _symmetry_equiv_pos_as_xyz
  1  'x, y, z'
loop_
 _atom_site_type_symbol
 _atom_site_label
 _atom_site_symmetry_multiplicity
 _atom_site_fract_x
 _atom_site_fract_y
 _atom_site_fract_z
 _atom_site_occupancy
  V  V0  1  0.87477100  0.12337099  0.38900417  1
  V  V1  1  0.12557209  0.62327368  0.89249779  1
  V  V2  1  0.12485785  0.87601519  0.38941015  1
  V  V3  1  0.12589976  0.12197599  0.39088831  1
  V  V4  1  0.12876621  0.87491492  0.13641832  1
  V  V5  1  0.62638117  0.87425804  0.89220759  1
  V  V6  1  0.62481747  0.62498046  0.89210061  1
  V  V7  1  0.87652607  0.87252199  0.89724781  1
  V  V8  1  0.62802210  0.37401455  0.89002680  1
  V  V9  1  0.37738247  0.62553331  0.63570662  1
  V  V10  1  0.12394669  0.12353631  0.13965631  1
  V  V11  1  0.62577969  0.12850122  0.64189934  1
  V  V12  1  0.62227671  0.87251589  0.13699790  1
  V  V13  1  0.62595151  0.62181186  0.14457486  1
  V  V14  1  0.62673329  0.12261607  0.14215303  1
  V  V15  1  0.62273897  0.87474820  0.64104123  1
  V  V16  1  0.87224581  0.62419762  0.63786943  1
  V  V17  1  0.87502633  0.62260814  0.89808161  1
  V  V18  1  0.87588290  0.12614594  0.89291070  1
  V  V19  1  0.12287337  0.87553570  0.89117623  1
  V  V20  1  0.87656194  0.62935006  0.38275216  1
  V  V21  1  0.87262486  0.87432830  0.63945222  1
  V  V22  1  0.12581354  0.37243935  0.14364038  1
  V  V23  1  0.37343125  0.62480836  0.14126735  1
  V  V24  1  0.12506544  0.12412618  0.88663690  1
  V  V25  1  0.87325018  0.37356682  0.14284864  1
  V  V26  1  0.87147456  0.37245851  0.63582235  1
  V  V27  1  0.12251282  0.37297458  0.88936583  1
  V  V28  1  0.37776991  0.37450860  0.63450092  1
  V  V29  1  0.63129484  0.87825108  0.38490497  1
  V  V30  1  0.37842691  0.87507463  0.38997345  1
  V  V31  1  0.62096912  0.37249815  0.14800186  1
  Fe  Fe32  1  0.62752720  0.12415788  0.88533825  1
  Fe  Fe33  1  0.37578834  0.12647812  0.88554889  1
  Fe  Fe34  1  0.37392665  0.37626159  0.88736981  1
  Fe  Fe35  1  0.37601388  0.87514687  0.63445542  1
  Fe  Fe36  1  0.37449182  0.37453863  0.14620758  1
  Fe  Fe37  1  0.12671496  0.37791213  0.63049850  1
  Fe  Fe38  1  0.37335121  0.37556993  0.37604019  1
  Fe  Fe39  1  0.87677160  0.37716530  0.88714565  1
  Fe  Fe40  1  0.37610112  0.87574798  0.13373929  1
  Fe  Fe41  1  0.62490479  0.62988963  0.37911006  1
  Fe  Fe42  1  0.12160221  0.37442842  0.38506061  1
  Fe  Fe43  1  0.12598677  0.62381203  0.63477221  1
  Fe  Fe44  1  0.37348010  0.62790992  0.38119345  1
  Fe  Fe45  1  0.12446826  0.87085984  0.63452303  1
  Fe  Fe46  1  0.87690679  0.12871421  0.13577958  1
  Fe  Fe47  1  0.12313771  0.62289349  0.14462920  1
  Fe  Fe48  1  0.87856906  0.87473530  0.38078010  1
  Fe  Fe49  1  0.62670872  0.37364448  0.37822435  1
  Fe  Fe50  1  0.87231149  0.12272298  0.63284977  1
  Fe  Fe51  1  0.62479998  0.62565711  0.63507116  1
  Fe  Fe52  1  0.37456653  0.12284744  0.38791843  1
  Fe  Fe53  1  0.37576103  0.12469424  0.63094379  1
  Fe  Fe54  1  0.37390735  0.87228152  0.88871742  1
  Fe  Fe55  1  0.62393128  0.37843125  0.63226221  1
  Fe  Fe56  1  0.87412538  0.62325261  0.13556385  1
  Fe  Fe57  1  0.12228308  0.12588456  0.63224526  1
  Fe  Fe58  1  0.37605844  0.62367638  0.88815746  1
  Fe  Fe59  1  0.37386835  0.12482985  0.13955700  1
  Fe  Fe60  1  0.12505341  0.62901953  0.37534979  1
  Fe  Fe61  1  0.62515360  0.12086334  0.38045915  1
  Fe  Fe62  1  0.87632504  0.37846634  0.38375461  1
  Fe  Fe63  1  0.87496628  0.87774588  0.13829549  1
  Pb  Pb64  1  -0.00508240  -0.00302652  0.00485530  1
  Pb  Pb65  1  -0.00654531  -0.00344654  0.24890560  1
  Pb  Pb66  1  0.00198272  0.00632442  0.50330924  1
  Pb  Pb67  1  0.00217066  0.00262735  0.74486442  1
  Pb  Pb68  1  -0.00089721  0.24564855  0.00039546  1
  Pb  Pb69  1  0.00080902  0.25872437  0.25617077  1
  Pb  Pb70  1  0.00420268  0.24935745  0.50032984  1
  Pb  Pb71  1  -0.00053960  0.25145913  0.74301750  1
  Pb  Pb72  1  0.00498093  0.50724042  0.00816894  1
  Pb  Pb73  1  0.00035694  0.49392428  0.25298759  1
  Pb  Pb74  1  0.00954633  0.50107872  0.49259843  1
  Pb  Pb75  1  -0.00339245  0.49452401  0.74769932  1
  Pb  Pb76  1  0.00267177  0.74022845  0.01061049  1
  Pb  Pb77  1  -0.00169110  0.74812711  0.24423792  1
  Pb  Pb78  1  0.00852423  0.74967352  0.49965565  1
  Pb  Pb79  1  0.00278077  0.74752817  0.74907775  1
  Pb  Pb80  1  0.26217545  0.00299384  0.00005221  1
  Pb  Pb81  1  0.25816228  0.00380862  0.25073875  1
  Pb  Pb82  1  0.25583377  -0.00283196  0.50635840  1
  Pb  Pb83  1  0.25234933  -0.00016713  0.74090615  1
  Pb  Pb84  1  0.26388544  0.25098287  0.00425252  1
  Pb  Pb85  1  0.25520527  0.25203830  0.25443320  1
  Pb  Pb86  1  0.24913407  0.25425001  0.49306407  1
  Pb  Pb87  1  0.25193147  0.24614755  0.74172457  1
  Pb  Pb88  1  0.25315009  0.49507928  0.00300751  1
  Pb  Pb89  1  0.24851941  0.49460279  0.25501395  1
  Pb  Pb90  1  0.24519044  0.50291742  0.48554037  1
  Pb  Pb91  1  0.25601103  0.49994557  0.74656883  1
  Pb  Pb92  1  0.24859290  0.74778146  0.00017202  1
  Pb  Pb93  1  0.25137769  0.74202967  0.25069687  1
  Pb  Pb94  1  0.24205732  0.75075455  0.49952323  1
  Pb  Pb95  1  0.25525090  0.75250368  0.74786201  1
  Pb  Pb96  1  0.49202816  0.00480138  -0.00135711  1
  Pb  Pb97  1  0.49720100  0.00904095  0.25166507  1
  Pb  Pb98  1  0.49159539  0.00173475  0.50148602  1
  Pb  Pb99  1  0.48751536  0.00491806  0.75390688  1
  Pb  Pb100  1  0.49514681  0.24743998  -0.00031580  1
  Pb  Pb101  1  0.49368673  0.24533439  0.25478616  1
  Pb  Pb102  1  0.49858151  0.24890540  0.48514217  1
  Pb  Pb103  1  0.48927246  0.25093918  0.75324056  1
  Pb  Pb104  1  0.49432067  0.49273390  0.00261485  1
  Pb  Pb105  1  0.49706048  0.50512130  0.25628119  1
  Pb  Pb106  1  0.50314820  0.49802344  0.48421015  1
  Pb  Pb107  1  0.49402188  0.50031457  0.74993226  1
  Pb  Pb108  1  0.49488184  0.75209559  0.00115489  1
  Pb  Pb109  1  0.49903883  0.74265792  0.25259478  1
  Pb  Pb110  1  0.50160078  0.74449612  0.49776626  1
  Pb  Pb111  1  0.48865194  0.74902700  0.75453095  1
  Pb  Pb112  1  0.75869352  -0.00189695  0.00533481  1
  Pb  Pb113  1  0.75215684  0.00136049  0.24848547  1
  Pb  Pb114  1  0.75737028  0.00462072  0.49897846  1
  Pb  Pb115  1  0.74367927  0.00376890  0.75437604  1
  Pb  Pb116  1  0.75451340  0.24566722  0.00153285  1
  Pb  Pb117  1  0.74503081  0.25113384  0.25562441  1
  Pb  Pb118  1  0.74282061  0.25760484  0.49366326  1
  Pb  Pb119  1  0.74579282  0.24700181  0.75077030  1
  Pb  Pb120  1  0.75209827  0.50218820  0.00374802  1
  Pb  Pb121  1  0.74858700  0.49159360  0.25467451  1
  Pb  Pb122  1  0.73789698  0.50019751  0.49277653  1
  Pb  Pb123  1  0.74936539  0.49552897  0.74873193  1
  Pb  Pb124  1  0.75757353  0.74912072  0.00714462  1
  Pb  Pb125  1  0.75378001  0.75035900  0.24614243  1
  Pb  Pb126  1  0.74708335  0.74283850  0.49672248  1
  Pb  Pb127  1  0.74810068  0.75008411  0.75122380  1
  O  O128  1  0.12526583  0.00348455  0.16105277  1
  O  O129  1  0.12357692  -0.00051718  0.41404085  1
  O  O130  1  0.12050531  -0.00273239  0.66359180  1
  O  O131  1  0.12045123  -0.00467647  0.91092328  1
  O  O132  1  0.12337950  0.25026640  0.16620108  1
  O  O133  1  0.11940580  0.24075575  0.41078024  1
  O  O134  1  0.12181106  0.25464359  0.66443998  1
  O  O135  1  0.12128205  0.25285725  0.91021583  1
  O  O136  1  0.12310473  0.49125225  0.16410920  1
  O  O137  1  0.12124868  0.50422366  0.40421429  1
  O  O138  1  0.12414260  0.50029312  0.66606532  1
  O  O139  1  0.12310359  0.49734702  0.91671193  1
  O  O140  1  0.12688318  0.75896549  0.15882572  1
  O  O141  1  0.12416737  0.75644729  0.40997081  1
  O  O142  1  0.12165329  0.74603573  0.67083533  1
  O  O143  1  0.12189705  0.75176089  0.91821803  1
  O  O144  1  0.37521078  -0.00062999  0.16642128  1
  O  O145  1  0.36970860  -0.00708678  0.41516920  1
  O  O146  1  0.37905322  0.00057754  0.66478036  1
  O  O147  1  0.37480303  -0.00085528  0.91245974  1
  O  O148  1  0.37425867  0.24790297  0.16775173  1
  O  O149  1  0.37259007  0.24936344  0.40710548  1
  O  O150  1  0.37914736  0.25488173  0.65787012  1
  O  O151  1  0.37462419  0.25198855  0.91711657  1
  O  O152  1  0.37693739  0.50736854  0.16536120  1
  O  O153  1  0.37438741  0.50123696  0.40566466  1
  O  O154  1  0.37735144  0.50049558  0.66091589  1
  O  O155  1  0.37448665  0.49935123  0.92112465  1
  O  O156  1  0.37746588  0.74667210  0.16057127  1
  O  O157  1  0.37200003  0.75983093  0.41344587  1
  O  O158  1  0.37810995  0.74446217  0.66077199  1
  O  O159  1  0.37513290  0.74802019  0.91928310  1
  O  O160  1  0.62546530  0.00308924  0.15965848  1
  O  O161  1  0.62410410  -0.00841004  0.41321978  1
  O  O162  1  0.63053841  -0.00597128  0.66739625  1
  O  O163  1  0.63039335  -0.00849650  0.91189812  1
  O  O164  1  0.62772090  0.25145028  0.16594624  1
  O  O165  1  0.62841991  0.24607049  0.40783814  1
  O  O166  1  0.63005722  0.24597864  0.65972560  1
  O  O167  1  0.62825771  0.25693220  0.91388310  1
  O  O168  1  0.62645444  0.49563920  0.16684409  1
  O  O169  1  0.62734536  0.50323733  0.40317805  1
  O  O170  1  0.62685739  0.50154268  0.66570981  1
  O  O171  1  0.62789879  0.49777479  0.91705600  1
  O  O172  1  0.62488616  0.75481240  0.15914627  1
  O  O173  1  0.62241757  0.76167139  0.41261415  1
  O  O174  1  0.62932965  0.75607915  0.66688080  1
  O  O175  1  0.62896732  0.75130195  0.92010229  1
  O  O176  1  0.87555130  0.00421745  0.16496202  1
  O  O177  1  0.87692203  0.00102087  0.41437009  1
  O  O178  1  0.87150668  -0.00890332  0.66347297  1
  O  O179  1  0.87666364  -0.00068227  0.91987968  1
  O  O180  1  0.87557052  0.25454502  0.16670724  1
  O  O181  1  0.87673881  0.23945562  0.40901120  1
  O  O182  1  0.87136524  0.25539855  0.65643303  1
  O  O183  1  0.87703769  0.24939789  0.91644392  1
  O  O184  1  0.87534569  0.49201228  0.16338395  1
  O  O185  1  0.87419565  0.51237452  0.40757842  1
  O  O186  1  0.87081071  0.50375558  0.66068221  1
  O  O187  1  0.87544493  0.50158409  0.92117738  1
  O  O188  1  0.87301439  0.75206027  0.16034314  1
  O  O189  1  0.87559129  0.74776206  0.41108456  1
  O  O190  1  0.87157508  0.74948003  0.66532217  1
  O  O191  1  0.87537048  0.74869154  0.92269699  1
  O  O192  1  0.00757141  0.12741449  0.16469774  1
  O  O193  1  -0.00093533  0.11907673  0.41360764  1
  O  O194  1  -0.00538022  0.12508173  0.66659567  1
  O  O195  1  0.00213567  0.12416397  0.91911335  1
  O  O196  1  -0.00088432  0.37242920  0.16498585  1
  O  O197  1  -0.00305454  0.37398012  0.41579724  1
  O  O198  1  -0.01056442  0.37977880  0.66014795  1
  O  O199  1  0.00626039  0.37611606  0.91751202  1
  O  O200  1  -0.00281342  0.62504010  0.16598849  1
  O  O201  1  -0.00516919  0.63064435  0.40438470  1
  O  O202  1  -0.01182624  0.62527871  0.66411416  1
  O  O203  1  0.00172361  0.62483072  0.92149320  1
  O  O204  1  0.00964377  0.87963130  0.16088141  1
  O  O205  1  0.00630690  0.87655080  0.41074412  1
  O  O206  1  -0.01062039  0.87022501  0.66435264  1
  O  O207  1  0.00253234  0.87326710  0.92134299  1
  O  O208  1  0.24045417  0.12674675  0.16629491  1
  O  O209  1  0.24192646  0.12152056  0.41094847  1
  O  O210  1  0.24977165  0.12664384  0.66025460  1
  O  O211  1  0.24271095  0.12504093  0.91175973  1
  O  O212  1  0.24253565  0.37397234  0.16524974  1
  O  O213  1  0.24733084  0.37281589  0.40841184  1
  O  O214  1  0.25918788  0.37666304  0.65983591  1
  O  O215  1  0.24068943  0.37568301  0.91476901  1
  O  O216  1  0.25589121  0.62594929  0.16057642  1
  O  O217  1  0.24849029  0.63087826  0.40713957  1
  O  O218  1  0.25886130  0.62395697  0.66097692  1
  O  O219  1  0.24501128  0.62465182  0.91642385  1
  O  O220  1  0.24476874  0.87881618  0.16263541  1
  O  O221  1  0.24550714  0.87697974  0.41340792  1
  O  O222  1  0.25054808  0.87189011  0.66480672  1
  O  O223  1  0.24012074  0.87277084  0.91139436  1
  O  O224  1  0.50739905  0.12750145  0.16346025  1
  O  O225  1  0.50094007  0.11930646  0.41162249  1
  O  O226  1  0.50972328  0.12222370  0.66178324  1
  O  O227  1  0.50388894  0.12566358  0.91547216  1
  O  O228  1  0.50572548  0.37479302  0.16535554  1
  O  O229  1  0.50046400  0.37451873  0.40138741  1
  O  O230  1  0.49524515  0.37666390  0.66042965  1
  O  O231  1  0.50910904  0.37650926  0.91552861  1
  O  O232  1  0.49987727  0.62528863  0.16618764  1
  O  O233  1  0.49973189  0.63259752  0.41117628  1
  O  O234  1  0.49501518  0.62486683  0.66169706  1
  O  O235  1  0.50654211  0.62413182  0.91907665  1
  O  O236  1  0.50732276  0.87825698  0.16260565  1
  O  O237  1  0.49638930  0.87721722  0.40789313  1
  O  O238  1  0.50820465  0.87404853  0.66271310  1
  O  O239  1  0.50954177  0.87221492  0.91336185  1
  O  O240  1  0.74558575  0.12769584  0.16340628  1
  O  O241  1  0.75551645  0.11770856  0.40898168  1
  O  O242  1  0.74709764  0.12183721  0.66875801  1
  O  O243  1  0.75385343  0.12493548  0.91776496  1
  O  O244  1  0.75333668  0.37397804  0.16460718  1
  O  O245  1  0.75319256  0.37468227  0.41172346  1
  O  O246  1  0.75468009  0.37761602  0.66436611  1
  O  O247  1  0.74615085  0.37660242  0.91695359  1
  O  O248  1  0.74702334  0.62413968  0.16529931  1
  O  O249  1  0.75390886  0.63306433  0.40786495  1
  O  O250  1  0.75573967  0.62754917  0.66738302  1
  O  O251  1  0.74841535  0.62462036  0.92249272  1
  O  O252  1  0.74025100  0.87919510  0.16231206  1
  O  O253  1  0.74668285  0.87525303  0.40571761  1
  O  O254  1  0.75215924  0.87214008  0.66903446  1
  O  O255  1  0.75020728  0.87209091  0.92016368  1
  O  O256  1  0.12558176  0.12692212  0.04901966  1
  O  O257  1  0.12307757  0.12078873  0.30016391  1
  O  O258  1  0.11479403  0.12484024  0.53286210  1
  O  O259  1  0.11984115  0.12416577  0.79595713  1
  O  O260  1  0.12453785  0.37046994  0.05282410  1
  O  O261  1  0.11694147  0.37234054  0.28374760  1
  O  O262  1  0.12179677  0.37559910  0.53093587  1
  O  O263  1  0.12102414  0.37771112  0.79876857  1
  O  O264  1  0.11801334  0.62435928  0.04316499  1
  O  O265  1  0.13031388  0.63321255  0.27393475  1
  O  O266  1  0.12028528  0.63151722  0.53532584  1
  O  O267  1  0.12237527  0.62438288  0.80190461  1
  O  O268  1  0.12897700  0.87727813  0.04555464  1
  O  O269  1  0.12730530  0.87730926  0.29879353  1
  O  O270  1  0.12307486  0.86250241  0.53517535  1
  O  O271  1  0.11645539  0.87000502  0.80082941  1
  O  O272  1  0.37068409  0.12288041  0.03797291  1
  O  O273  1  0.37625399  0.11718482  0.28585337  1
  O  O274  1  0.37688566  0.11686714  0.53096214  1
  O  O275  1  0.38323630  0.13117542  0.78512311  1
  O  O276  1  0.37058623  0.37595737  0.04452209  1
  O  O277  1  0.36827910  0.37713959  0.27377810  1
  O  O278  1  0.37654935  0.37698168  0.54447129  1
  O  O279  1  0.38130498  0.37678432  0.78792612  1
  O  O280  1  0.37743291  0.62326043  0.05002710  1
  O  O281  1  0.37901331  0.63322870  0.28078469  1
  O  O282  1  0.37798313  0.62571799  0.54529174  1
  O  O283  1  0.38076740  0.62263998  0.78865315  1
  O  O284  1  0.37543884  0.87897876  0.03399800  1
  O  O285  1  0.37316804  0.87693276  0.29880375  1
  O  O286  1  0.37472246  0.88303224  0.53521929  1
  O  O287  1  0.38090438  0.86687696  0.78849022  1
  O  O288  1  0.62679917  0.12685941  0.05130290  1
  O  O289  1  0.62492860  0.12133973  0.28091486  1
  O  O290  1  0.63053310  0.11991067  0.55164729  1
  O  O291  1  0.63325579  0.12658469  0.78601956  1
  O  O292  1  0.62630375  0.37224222  0.05722974  1
  O  O293  1  0.63670111  0.37269224  0.27700057  1
  O  O294  1  0.63219313  0.37702458  0.53334092  1
  O  O295  1  0.62835016  0.37525114  0.79894139  1
  O  O296  1  0.62316701  0.62126580  0.05360543  1
  O  O297  1  0.61944487  0.63361345  0.27909446  1
  O  O298  1  0.62935782  0.63339919  0.53577046  1
  O  O299  1  0.62637037  0.62694608  0.80134504  1
  O  O300  1  0.62254504  0.87524781  0.04638983  1
  O  O301  1  0.62680423  0.87806578  0.29400922  1
  O  O302  1  0.62703425  0.87625828  0.55064267  1
  O  O303  1  0.63029713  0.86863438  0.80150271  1
  O  O304  1  0.87692571  0.12854577  0.03610446  1
  O  O305  1  0.87808602  0.11977966  0.29766145  1
  O  O306  1  0.87251880  0.11466050  0.53436416  1
  O  O307  1  0.87586982  0.12451625  0.80201656  1
  O  O308  1  0.87480014  0.37195053  0.05187893  1
  O  O309  1  0.87933502  0.37717529  0.28364414  1
  O  O310  1  0.87004109  0.37711342  0.54548585  1
  O  O311  1  0.87610090  0.38152669  0.78858356  1
  O  O312  1  0.87586982  0.62267569  0.03530461  1
  O  O313  1  0.87330122  0.63169024  0.29160817  1
  O  O314  1  0.87008793  0.62777614  0.54764687  1
  O  O315  1  0.87430675  0.62417213  0.80732245  1
  O  O316  1  0.87334944  0.88254003  0.03719781  1
  O  O317  1  0.87755010  0.87874882  0.28112409  1
  O  O318  1  0.87102494  0.87338719  0.54889995  1
  O  O319  1  0.87631641  0.87382071  0.80671486  1
