# generated using pymatgen
data_K24Na2.664Li5.4Mg63.936Fe16.512Si79.488O240F48
_symmetry_space_group_name_H-M   'P 1'
_cell_length_a   15.98700000
_cell_length_b   18.46000000
_cell_length_c   20.43800000
_cell_angle_alpha   90.00000000
_cell_angle_beta   100.00000000
_cell_angle_gamma   90.00000000
_symmetry_Int_Tables_number   1
_chemical_formula_structural
K24Na2.664Li5.4Mg63.936Fe16.512Si79.488O240F48
_chemical_formula_sum
'K24 Na2.664 Li5.4 Mg63.936 Fe16.512 Si79.488 O240 F48'
_cell_volume   5940.02845519
_cell_formula_units_Z   1
loop_
 _symmetry_equiv_pos_site_id
 _symmetry_equiv_pos_as_xyz
  1  'x, y, z'
loop_
 _atom_site_type_symbol
 _atom_site_label
 _atom_site_symmetry_multiplicity
 _atom_site_fract_x
 _atom_site_fract_y
 _atom_site_fract_z
 _atom_site_occupancy
  K  K0  1  0.00000000  0.00000000  0.00000000  1.0
  K  K1  1  0.00000000  0.00000000  0.50000000  1.0
  K  K2  1  0.00000000  0.50000000  0.00000000  1.0
  K  K3  1  0.00000000  0.50000000  0.50000000  1.0
  K  K4  1  0.33333333  0.00000000  0.00000000  1.0
  K  K5  1  0.33333333  0.00000000  0.50000000  1.0
  K  K6  1  0.33333333  0.50000000  0.00000000  1.0
  K  K7  1  0.33333333  0.50000000  0.50000000  1.0
  K  K8  1  0.66666667  0.00000000  0.00000000  1.0
  K  K9  1  0.66666667  0.00000000  0.50000000  1.0
  K  K10  1  0.66666667  0.50000000  0.00000000  1.0
  K  K11  1  0.66666667  0.50000000  0.50000000  1.0
  K  K12  1  0.16666667  0.25000000  0.00000000  1.0
  K  K13  1  0.16666667  0.25000000  0.50000000  1.0
  K  K14  1  0.16666667  0.75000000  0.00000000  1.0
  K  K15  1  0.16666667  0.75000000  0.50000000  1.0
  K  K16  1  0.50000000  0.25000000  0.00000000  1.0
  K  K17  1  0.50000000  0.25000000  0.50000000  1.0
  K  K18  1  0.50000000  0.75000000  0.00000000  1.0
  K  K19  1  0.50000000  0.75000000  0.50000000  1.0
  K  K20  1  0.83333333  0.25000000  0.00000000  1.0
  K  K21  1  0.83333333  0.25000000  0.50000000  1.0
  K  K22  1  0.83333333  0.75000000  0.00000000  1.0
  K  K23  1  0.83333333  0.75000000  0.50000000  1.0
  Na  Na1  1  0.16666667  0.50000000  0.75000000  1.0
  Li  Na1  1  0.00000000  0.75000000  0.75000000  1.0
  Li  Na1  1  0.16666667  0.00000000  0.25000000  1.0
  Mg  Na1  1  0.50000000  0.00000000  0.25000000  1.0
  Mg  Na1  1  0.83333333  0.00000000  0.25000000  1.0
  Mg  Na1  1  0.83333333  0.50000000  0.75000000  1.0
  Mg  Na1  1  0.50000000  0.00000000  0.75000000  1.0
  Mg  Na1  1  0.50000000  0.50000000  0.75000000  1.0
  Mg  Na1  1  0.33333333  0.75000000  0.75000000  1.0
  Mg  Na1  1  0.00000000  0.25000000  0.25000000  1.0
  Mg  Na1  1  0.00000000  0.75000000  0.25000000  1.0
  Mg  Na1  1  0.16666667  0.00000000  0.75000000  1.0
  Mg  Na1  1  0.33333333  0.25000000  0.25000000  1.0
  Mg  Na1  1  0.50000000  0.50000000  0.25000000  1.0
  Mg  Na1  1  0.66666667  0.75000000  0.25000000  1.0
  Mg  Na1  1  0.16666667  0.50000000  0.25000000  1.0
  Mg  Na1  1  0.83333333  0.00000000  0.75000000  1.0
  Mg  Na1  1  0.66666667  0.25000000  0.75000000  1.0
  Mg  Na1  1  0.00000000  0.25000000  0.75000000  1.0
  Mg  Na1  1  0.33333333  0.75000000  0.25000000  1.0
  Mg  Na1  1  0.66666667  0.25000000  0.25000000  1.0
  Mg  Na1  1  0.66666667  0.75000000  0.75000000  1.0
  Mg  Na1  1  0.33333333  0.25000000  0.75000000  1.0
  Mg  Na1  1  0.83333333  0.50000000  0.25000000  1.0
  Na  Na2  1  0.66666667  0.41685000  0.75000000  1.0
  Na  Na2  1  0.33333333  0.58315000  0.25000000  1.0
  Li  Na2  1  0.66666667  0.58315000  0.75000000  1.0
  Li  Na2  1  0.16666667  0.16685000  0.75000000  1.0
  Li  Na2  1  0.33333333  0.41685000  0.75000000  1.0
  Mg  Na2  1  0.50000000  0.16685000  0.25000000  1.0
  Mg  Na2  1  0.50000000  0.66685000  0.25000000  1.0
  Mg  Na2  1  0.66666667  0.08315000  0.75000000  1.0
  Mg  Na2  1  0.83333333  0.33315000  0.25000000  1.0
  Mg  Na2  1  0.83333333  0.16685000  0.25000000  1.0
  Mg  Na2  1  0.83333333  0.66685000  0.25000000  1.0
  Mg  Na2  1  0.33333333  0.41685000  0.25000000  1.0
  Mg  Na2  1  0.83333333  0.83315000  0.75000000  1.0
  Mg  Na2  1  0.50000000  0.83315000  0.75000000  1.0
  Mg  Na2  1  0.33333333  0.91685000  0.75000000  1.0
  Mg  Na2  1  0.83333333  0.33315000  0.75000000  1.0
  Mg  Na2  1  0.00000000  0.41685000  0.25000000  1.0
  Mg  Na2  1  0.83333333  0.66685000  0.75000000  1.0
  Mg  Na2  1  0.50000000  0.33315000  0.25000000  1.0
  Mg  Na2  1  0.16666667  0.83315000  0.25000000  1.0
  Mg  Na2  1  0.00000000  0.08315000  0.75000000  1.0
  Mg  Na2  1  0.66666667  0.91685000  0.75000000  1.0
  Mg  Na2  1  0.16666667  0.33315000  0.75000000  1.0
  Mg  Na2  1  0.00000000  0.58315000  0.75000000  1.0
  Mg  Na2  1  0.33333333  0.58315000  0.75000000  1.0
  Mg  Na2  1  0.00000000  0.08315000  0.25000000  1.0
  Mg  Na2  1  0.66666667  0.58315000  0.25000000  1.0
  Mg  Na2  1  0.50000000  0.66685000  0.75000000  1.0
  Mg  Na2  1  0.00000000  0.58315000  0.25000000  1.0
  Mg  Na2  1  0.50000000  0.16685000  0.75000000  1.0
  Mg  Na2  1  0.33333333  0.08315000  0.25000000  1.0
  Mg  Na2  1  0.00000000  0.41685000  0.75000000  1.0
  Mg  Na2  1  0.83333333  0.83315000  0.25000000  1.0
  Mg  Na2  1  0.16666667  0.66685000  0.25000000  1.0
  Mg  Na2  1  0.33333333  0.91685000  0.25000000  1.0
  Mg  Na2  1  0.16666667  0.16685000  0.25000000  1.0
  Mg  Na2  1  0.50000000  0.83315000  0.25000000  1.0
  Mg  Na2  1  0.50000000  0.33315000  0.75000000  1.0
  Mg  Na2  1  0.66666667  0.41685000  0.25000000  1.0
  Mg  Na2  1  0.00000000  0.91685000  0.75000000  1.0
  Mg  Na2  1  0.83333333  0.16685000  0.75000000  1.0
  Mg  Na2  1  0.66666667  0.91685000  0.25000000  1.0
  Mg  Na2  1  0.00000000  0.91685000  0.25000000  1.0
  Mg  Na2  1  0.16666667  0.83315000  0.75000000  1.0
  Mg  Na2  1  0.16666667  0.66685000  0.75000000  1.0
  Mg  Na2  1  0.33333333  0.08315000  0.75000000  1.0
  Mg  Na2  1  0.16666667  0.33315000  0.25000000  1.0
  Mg  Na2  1  0.66666667  0.08315000  0.25000000  1.0
  Fe  Fe  1  0.64170000  0.66665000  0.38725000  1.0
  Fe  Fe  1  0.52496667  0.41665000  0.11275000  1.0
  Fe  Fe  1  0.80836667  0.58335000  0.38725000  1.0
  Fe  Fe  1  0.30836667  0.33335000  0.38725000  1.0
  Fe  Fe  1  0.80836667  0.08335000  0.38725000  1.0
  Fe  Fe  1  0.30836667  0.83335000  0.38725000  1.0
  Fe  Fe  1  0.19163333  0.91665000  0.61275000  1.0
  Fe  Fe  1  0.52496667  0.58335000  0.11275000  1.0
  Fe  Fe  1  0.64170000  0.16665000  0.88725000  1.0
  Fe  Fe  1  0.69163333  0.33335000  0.11275000  1.0
  Fe  Fe  1  0.47503333  0.58335000  0.88725000  1.0
  Fe  Fe  1  0.97503333  0.83335000  0.88725000  1.0
  Fe  Fe  1  0.35830000  0.83335000  0.11275000  1.0
  Fe  Fe  1  0.69163333  0.83335000  0.61275000  1.0
  Fe  Fe  1  0.52496667  0.91665000  0.11275000  1.0
  Fe  Fe  1  0.80836667  0.91665000  0.38725000  1.0
  Fe  Fe  1  0.47503333  0.91665000  0.88725000  1.0
  Si  Fe  1  0.69163333  0.66665000  0.61275000  1.0
  Si  Fe  1  0.30836667  0.16665000  0.88725000  1.0
  Si  Fe  1  0.19163333  0.08335000  0.61275000  1.0
  Si  Fe  1  0.19163333  0.91665000  0.11275000  1.0
  Si  Fe  1  0.85830000  0.08335000  0.11275000  1.0
  Si  Fe  1  0.35830000  0.33335000  0.61275000  1.0
  Si  Fe  1  0.85830000  0.91665000  0.11275000  1.0
  Si  Fe  1  0.14170000  0.41665000  0.38725000  1.0
  Si  Fe  1  0.02496667  0.83335000  0.61275000  1.0
  Si  Fe  1  0.80836667  0.41665000  0.88725000  1.0
  Si  Fe  1  0.85830000  0.41665000  0.11275000  1.0
  Si  Fe  1  0.97503333  0.66665000  0.88725000  1.0
  Si  Fe  1  0.30836667  0.83335000  0.88725000  1.0
  Si  Fe  1  0.02496667  0.33335000  0.11275000  1.0
  Si  Fe  1  0.52496667  0.58335000  0.61275000  1.0
  Si  Fe  1  0.47503333  0.08335000  0.38725000  1.0
  Si  Fe  1  0.52496667  0.91665000  0.61275000  1.0
  Si  Fe  1  0.52496667  0.08335000  0.61275000  1.0
  Si  Fe  1  0.64170000  0.83335000  0.38725000  1.0
  Si  Fe  1  0.47503333  0.58335000  0.38725000  1.0
  Si  Fe  1  0.19163333  0.41665000  0.11275000  1.0
  Si  Fe  1  0.80836667  0.91665000  0.88725000  1.0
  Si  Fe  1  0.30836667  0.66665000  0.88725000  1.0
  Si  Fe  1  0.30836667  0.33335000  0.88725000  1.0
  Si  Fe  1  0.02496667  0.33335000  0.61275000  1.0
  Si  Fe  1  0.14170000  0.08335000  0.38725000  1.0
  Si  Fe  1  0.97503333  0.83335000  0.38725000  1.0
  Si  Fe  1  0.47503333  0.91665000  0.38725000  1.0
  Si  Fe  1  0.80836667  0.41665000  0.38725000  1.0
  Si  Fe  1  0.97503333  0.16665000  0.88725000  1.0
  Si  Fe  1  0.52496667  0.08335000  0.11275000  1.0
  Si  Fe  1  0.19163333  0.58335000  0.11275000  1.0
  Si  Fe  1  0.14170000  0.41665000  0.88725000  1.0
  Si  Fe  1  0.85830000  0.08335000  0.61275000  1.0
  Si  Fe  1  0.80836667  0.58335000  0.88725000  1.0
  Si  Fe  1  0.64170000  0.66665000  0.88725000  1.0
  Si  Fe  1  0.85830000  0.91665000  0.61275000  1.0
  Si  Fe  1  0.02496667  0.16665000  0.11275000  1.0
  Si  Fe  1  0.35830000  0.16665000  0.11275000  1.0
  Si  Fe  1  0.97503333  0.33335000  0.88725000  1.0
  Si  Fe  1  0.02496667  0.16665000  0.61275000  1.0
  Si  Fe  1  0.64170000  0.33335000  0.38725000  1.0
  Si  Fe  1  0.02496667  0.66665000  0.11275000  1.0
  Si  Fe  1  0.19163333  0.08335000  0.11275000  1.0
  Si  Fe  1  0.85830000  0.58335000  0.11275000  1.0
  Si  Fe  1  0.69163333  0.83335000  0.11275000  1.0
  Si  Fe  1  0.64170000  0.83335000  0.88725000  1.0
  Si  Fe  1  0.02496667  0.66665000  0.61275000  1.0
  Si  Fe  1  0.64170000  0.33335000  0.88725000  1.0
  Si  Fe  1  0.14170000  0.91665000  0.38725000  1.0
  Si  Fe  1  0.85830000  0.58335000  0.61275000  1.0
  Si  Fe  1  0.97503333  0.16665000  0.38725000  1.0
  Si  Fe  1  0.97503333  0.33335000  0.38725000  1.0
  Si  Fe  1  0.64170000  0.16665000  0.38725000  1.0
  Si  Fe  1  0.47503333  0.41665000  0.38725000  1.0
  Si  Fe  1  0.69163333  0.66665000  0.11275000  1.0
  Si  Fe  1  0.14170000  0.58335000  0.38725000  1.0
  Si  Fe  1  0.47503333  0.08335000  0.88725000  1.0
  Si  Fe  1  0.35830000  0.66665000  0.11275000  1.0
  Si  Fe  1  0.69163333  0.16665000  0.11275000  1.0
  Si  Fe  1  0.35830000  0.66665000  0.61275000  1.0
  Si  Fe  1  0.02496667  0.83335000  0.11275000  1.0
  Si  Fe  1  0.52496667  0.41665000  0.61275000  1.0
  Si  Fe  1  0.97503333  0.66665000  0.38725000  1.0
  Si  Fe  1  0.14170000  0.08335000  0.88725000  1.0
  Si  Fe  1  0.14170000  0.91665000  0.88725000  1.0
  Si  Fe  1  0.19163333  0.58335000  0.61275000  1.0
  Si  Fe  1  0.14170000  0.58335000  0.88725000  1.0
  Si  Fe  1  0.80836667  0.08335000  0.88725000  1.0
  Si  Fe  1  0.35830000  0.33335000  0.11275000  1.0
  Si  Fe  1  0.35830000  0.16665000  0.61275000  1.0
  Si  Fe  1  0.69163333  0.16665000  0.61275000  1.0
  Si  Fe  1  0.85830000  0.41665000  0.61275000  1.0
  Si  Fe  1  0.19163333  0.41665000  0.61275000  1.0
  Si  Fe  1  0.30836667  0.66665000  0.38725000  1.0
  Si  Fe  1  0.47503333  0.41665000  0.88725000  1.0
  Si  Fe  1  0.69163333  0.33335000  0.61275000  1.0
  Si  Fe  1  0.35830000  0.83335000  0.61275000  1.0
  Si  Fe  1  0.30836667  0.16665000  0.38725000  1.0
  O  O1  1  0.27326667  0.11775000  0.08360000  1.0
  O  O1  1  0.27326667  0.11775000  0.58360000  1.0
  O  O1  1  0.27326667  0.61775000  0.08360000  1.0
  O  O1  1  0.27326667  0.61775000  0.58360000  1.0
  O  O1  1  0.60660000  0.11775000  0.08360000  1.0
  O  O1  1  0.60660000  0.11775000  0.58360000  1.0
  O  O1  1  0.60660000  0.61775000  0.08360000  1.0
  O  O1  1  0.60660000  0.61775000  0.58360000  1.0
  O  O1  1  0.93993333  0.11775000  0.08360000  1.0
  O  O1  1  0.93993333  0.11775000  0.58360000  1.0
  O  O1  1  0.93993333  0.61775000  0.08360000  1.0
  O  O1  1  0.93993333  0.61775000  0.58360000  1.0
  O  O1  1  0.10660000  0.36775000  0.08360000  1.0
  O  O1  1  0.10660000  0.36775000  0.58360000  1.0
  O  O1  1  0.10660000  0.86775000  0.08360000  1.0
  O  O1  1  0.10660000  0.86775000  0.58360000  1.0
  O  O1  1  0.43993333  0.36775000  0.08360000  1.0
  O  O1  1  0.43993333  0.36775000  0.58360000  1.0
  O  O1  1  0.43993333  0.86775000  0.08360000  1.0
  O  O1  1  0.43993333  0.86775000  0.58360000  1.0
  O  O1  1  0.77326667  0.36775000  0.08360000  1.0
  O  O1  1  0.77326667  0.36775000  0.58360000  1.0
  O  O1  1  0.77326667  0.86775000  0.08360000  1.0
  O  O1  1  0.77326667  0.86775000  0.58360000  1.0
  O  O1  1  0.27326667  0.38225000  0.08360000  1.0
  O  O1  1  0.27326667  0.38225000  0.58360000  1.0
  O  O1  1  0.27326667  0.88225000  0.08360000  1.0
  O  O1  1  0.27326667  0.88225000  0.58360000  1.0
  O  O1  1  0.60660000  0.38225000  0.08360000  1.0
  O  O1  1  0.60660000  0.38225000  0.58360000  1.0
  O  O1  1  0.60660000  0.88225000  0.08360000  1.0
  O  O1  1  0.60660000  0.88225000  0.58360000  1.0
  O  O1  1  0.93993333  0.38225000  0.08360000  1.0
  O  O1  1  0.93993333  0.38225000  0.58360000  1.0
  O  O1  1  0.93993333  0.88225000  0.08360000  1.0
  O  O1  1  0.93993333  0.88225000  0.58360000  1.0
  O  O1  1  0.10660000  0.13225000  0.08360000  1.0
  O  O1  1  0.10660000  0.13225000  0.58360000  1.0
  O  O1  1  0.10660000  0.63225000  0.08360000  1.0
  O  O1  1  0.10660000  0.63225000  0.58360000  1.0
  O  O1  1  0.43993333  0.13225000  0.08360000  1.0
  O  O1  1  0.43993333  0.13225000  0.58360000  1.0
  O  O1  1  0.43993333  0.63225000  0.08360000  1.0
  O  O1  1  0.43993333  0.63225000  0.58360000  1.0
  O  O1  1  0.77326667  0.13225000  0.08360000  1.0
  O  O1  1  0.77326667  0.13225000  0.58360000  1.0
  O  O1  1  0.77326667  0.63225000  0.08360000  1.0
  O  O1  1  0.77326667  0.63225000  0.58360000  1.0
  O  O1  1  0.06006667  0.11775000  0.41640000  1.0
  O  O1  1  0.06006667  0.11775000  0.91640000  1.0
  O  O1  1  0.06006667  0.61775000  0.41640000  1.0
  O  O1  1  0.06006667  0.61775000  0.91640000  1.0
  O  O1  1  0.39340000  0.11775000  0.41640000  1.0
  O  O1  1  0.39340000  0.11775000  0.91640000  1.0
  O  O1  1  0.39340000  0.61775000  0.41640000  1.0
  O  O1  1  0.39340000  0.61775000  0.91640000  1.0
  O  O1  1  0.72673333  0.11775000  0.41640000  1.0
  O  O1  1  0.72673333  0.11775000  0.91640000  1.0
  O  O1  1  0.72673333  0.61775000  0.41640000  1.0
  O  O1  1  0.72673333  0.61775000  0.91640000  1.0
  O  O1  1  0.22673333  0.36775000  0.41640000  1.0
  O  O1  1  0.22673333  0.36775000  0.91640000  1.0
  O  O1  1  0.22673333  0.86775000  0.41640000  1.0
  O  O1  1  0.22673333  0.86775000  0.91640000  1.0
  O  O1  1  0.56006667  0.36775000  0.41640000  1.0
  O  O1  1  0.56006667  0.36775000  0.91640000  1.0
  O  O1  1  0.56006667  0.86775000  0.41640000  1.0
  O  O1  1  0.56006667  0.86775000  0.91640000  1.0
  O  O1  1  0.89340000  0.36775000  0.41640000  1.0
  O  O1  1  0.89340000  0.36775000  0.91640000  1.0
  O  O1  1  0.89340000  0.86775000  0.41640000  1.0
  O  O1  1  0.89340000  0.86775000  0.91640000  1.0
  O  O1  1  0.06006667  0.38225000  0.41640000  1.0
  O  O1  1  0.06006667  0.38225000  0.91640000  1.0
  O  O1  1  0.06006667  0.88225000  0.41640000  1.0
  O  O1  1  0.06006667  0.88225000  0.91640000  1.0
  O  O1  1  0.39340000  0.38225000  0.41640000  1.0
  O  O1  1  0.39340000  0.38225000  0.91640000  1.0
  O  O1  1  0.39340000  0.88225000  0.41640000  1.0
  O  O1  1  0.39340000  0.88225000  0.91640000  1.0
  O  O1  1  0.72673333  0.38225000  0.41640000  1.0
  O  O1  1  0.72673333  0.38225000  0.91640000  1.0
  O  O1  1  0.72673333  0.88225000  0.41640000  1.0
  O  O1  1  0.72673333  0.88225000  0.91640000  1.0
  O  O1  1  0.22673333  0.13225000  0.41640000  1.0
  O  O1  1  0.22673333  0.13225000  0.91640000  1.0
  O  O1  1  0.22673333  0.63225000  0.41640000  1.0
  O  O1  1  0.22673333  0.63225000  0.91640000  1.0
  O  O1  1  0.56006667  0.13225000  0.41640000  1.0
  O  O1  1  0.56006667  0.13225000  0.91640000  1.0
  O  O1  1  0.56006667  0.63225000  0.41640000  1.0
  O  O1  1  0.56006667  0.63225000  0.91640000  1.0
  O  O1  1  0.89340000  0.13225000  0.41640000  1.0
  O  O1  1  0.89340000  0.13225000  0.91640000  1.0
  O  O1  1  0.89340000  0.63225000  0.41640000  1.0
  O  O1  1  0.89340000  0.63225000  0.91640000  1.0
  O  O2  1  0.17546667  0.00000000  0.08345000  1.0
  O  O2  1  0.17546667  0.00000000  0.58345000  1.0
  O  O2  1  0.17546667  0.50000000  0.08345000  1.0
  O  O2  1  0.17546667  0.50000000  0.58345000  1.0
  O  O2  1  0.50880000  0.00000000  0.08345000  1.0
  O  O2  1  0.50880000  0.00000000  0.58345000  1.0
  O  O2  1  0.50880000  0.50000000  0.08345000  1.0
  O  O2  1  0.50880000  0.50000000  0.58345000  1.0
  O  O2  1  0.84213333  0.00000000  0.08345000  1.0
  O  O2  1  0.84213333  0.00000000  0.58345000  1.0
  O  O2  1  0.84213333  0.50000000  0.08345000  1.0
  O  O2  1  0.84213333  0.50000000  0.58345000  1.0
  O  O2  1  0.00880000  0.25000000  0.08345000  1.0
  O  O2  1  0.00880000  0.25000000  0.58345000  1.0
  O  O2  1  0.00880000  0.75000000  0.08345000  1.0
  O  O2  1  0.00880000  0.75000000  0.58345000  1.0
  O  O2  1  0.34213333  0.25000000  0.08345000  1.0
  O  O2  1  0.34213333  0.25000000  0.58345000  1.0
  O  O2  1  0.34213333  0.75000000  0.08345000  1.0
  O  O2  1  0.34213333  0.75000000  0.58345000  1.0
  O  O2  1  0.67546667  0.25000000  0.08345000  1.0
  O  O2  1  0.67546667  0.25000000  0.58345000  1.0
  O  O2  1  0.67546667  0.75000000  0.08345000  1.0
  O  O2  1  0.67546667  0.75000000  0.58345000  1.0
  O  O2  1  0.15786667  0.00000000  0.41655000  1.0
  O  O2  1  0.15786667  0.00000000  0.91655000  1.0
  O  O2  1  0.15786667  0.50000000  0.41655000  1.0
  O  O2  1  0.15786667  0.50000000  0.91655000  1.0
  O  O2  1  0.49120000  0.00000000  0.41655000  1.0
  O  O2  1  0.49120000  0.00000000  0.91655000  1.0
  O  O2  1  0.49120000  0.50000000  0.41655000  1.0
  O  O2  1  0.49120000  0.50000000  0.91655000  1.0
  O  O2  1  0.82453333  0.00000000  0.41655000  1.0
  O  O2  1  0.82453333  0.00000000  0.91655000  1.0
  O  O2  1  0.82453333  0.50000000  0.41655000  1.0
  O  O2  1  0.82453333  0.50000000  0.91655000  1.0
  O  O2  1  0.32453333  0.25000000  0.41655000  1.0
  O  O2  1  0.32453333  0.25000000  0.91655000  1.0
  O  O2  1  0.32453333  0.75000000  0.41655000  1.0
  O  O2  1  0.32453333  0.75000000  0.91655000  1.0
  O  O2  1  0.65786667  0.25000000  0.41655000  1.0
  O  O2  1  0.65786667  0.25000000  0.91655000  1.0
  O  O2  1  0.65786667  0.75000000  0.41655000  1.0
  O  O2  1  0.65786667  0.75000000  0.91655000  1.0
  O  O2  1  0.99120000  0.25000000  0.41655000  1.0
  O  O2  1  0.99120000  0.25000000  0.91655000  1.0
  O  O2  1  0.99120000  0.75000000  0.41655000  1.0
  O  O2  1  0.99120000  0.75000000  0.91655000  1.0
  O  O3  1  0.20993333  0.08350000  0.19505000  1.0
  O  O3  1  0.20993333  0.08350000  0.69505000  1.0
  O  O3  1  0.20993333  0.58350000  0.19505000  1.0
  O  O3  1  0.20993333  0.58350000  0.69505000  1.0
  O  O3  1  0.54326667  0.08350000  0.19505000  1.0
  O  O3  1  0.54326667  0.08350000  0.69505000  1.0
  O  O3  1  0.54326667  0.58350000  0.19505000  1.0
  O  O3  1  0.54326667  0.58350000  0.69505000  1.0
  O  O3  1  0.87660000  0.08350000  0.19505000  1.0
  O  O3  1  0.87660000  0.08350000  0.69505000  1.0
  O  O3  1  0.87660000  0.58350000  0.19505000  1.0
  O  O3  1  0.87660000  0.58350000  0.69505000  1.0
  O  O3  1  0.04326667  0.33350000  0.19505000  1.0
  O  O3  1  0.04326667  0.33350000  0.69505000  1.0
  O  O3  1  0.04326667  0.83350000  0.19505000  1.0
  O  O3  1  0.04326667  0.83350000  0.69505000  1.0
  O  O3  1  0.37660000  0.33350000  0.19505000  1.0
  O  O3  1  0.37660000  0.33350000  0.69505000  1.0
  O  O3  1  0.37660000  0.83350000  0.19505000  1.0
  O  O3  1  0.37660000  0.83350000  0.69505000  1.0
  O  O3  1  0.70993333  0.33350000  0.19505000  1.0
  O  O3  1  0.70993333  0.33350000  0.69505000  1.0
  O  O3  1  0.70993333  0.83350000  0.19505000  1.0
  O  O3  1  0.70993333  0.83350000  0.69505000  1.0
  O  O3  1  0.20993333  0.41650000  0.19505000  1.0
  O  O3  1  0.20993333  0.41650000  0.69505000  1.0
  O  O3  1  0.20993333  0.91650000  0.19505000  1.0
  O  O3  1  0.20993333  0.91650000  0.69505000  1.0
  O  O3  1  0.54326667  0.41650000  0.19505000  1.0
  O  O3  1  0.54326667  0.41650000  0.69505000  1.0
  O  O3  1  0.54326667  0.91650000  0.19505000  1.0
  O  O3  1  0.54326667  0.91650000  0.69505000  1.0
  O  O3  1  0.87660000  0.41650000  0.19505000  1.0
  O  O3  1  0.87660000  0.41650000  0.69505000  1.0
  O  O3  1  0.87660000  0.91650000  0.19505000  1.0
  O  O3  1  0.87660000  0.91650000  0.69505000  1.0
  O  O3  1  0.04326667  0.16650000  0.19505000  1.0
  O  O3  1  0.04326667  0.16650000  0.69505000  1.0
  O  O3  1  0.04326667  0.66650000  0.19505000  1.0
  O  O3  1  0.04326667  0.66650000  0.69505000  1.0
  O  O3  1  0.37660000  0.16650000  0.19505000  1.0
  O  O3  1  0.37660000  0.16650000  0.69505000  1.0
  O  O3  1  0.37660000  0.66650000  0.19505000  1.0
  O  O3  1  0.37660000  0.66650000  0.69505000  1.0
  O  O3  1  0.70993333  0.16650000  0.19505000  1.0
  O  O3  1  0.70993333  0.16650000  0.69505000  1.0
  O  O3  1  0.70993333  0.66650000  0.19505000  1.0
  O  O3  1  0.70993333  0.66650000  0.69505000  1.0
  O  O3  1  0.12340000  0.08350000  0.30495000  1.0
  O  O3  1  0.12340000  0.08350000  0.80495000  1.0
  O  O3  1  0.12340000  0.58350000  0.30495000  1.0
  O  O3  1  0.12340000  0.58350000  0.80495000  1.0
  O  O3  1  0.45673333  0.08350000  0.30495000  1.0
  O  O3  1  0.45673333  0.08350000  0.80495000  1.0
  O  O3  1  0.45673333  0.58350000  0.30495000  1.0
  O  O3  1  0.45673333  0.58350000  0.80495000  1.0
  O  O3  1  0.79006667  0.08350000  0.30495000  1.0
  O  O3  1  0.79006667  0.08350000  0.80495000  1.0
  O  O3  1  0.79006667  0.58350000  0.30495000  1.0
  O  O3  1  0.79006667  0.58350000  0.80495000  1.0
  O  O3  1  0.29006667  0.33350000  0.30495000  1.0
  O  O3  1  0.29006667  0.33350000  0.80495000  1.0
  O  O3  1  0.29006667  0.83350000  0.30495000  1.0
  O  O3  1  0.29006667  0.83350000  0.80495000  1.0
  O  O3  1  0.62340000  0.33350000  0.30495000  1.0
  O  O3  1  0.62340000  0.33350000  0.80495000  1.0
  O  O3  1  0.62340000  0.83350000  0.30495000  1.0
  O  O3  1  0.62340000  0.83350000  0.80495000  1.0
  O  O3  1  0.95673333  0.33350000  0.30495000  1.0
  O  O3  1  0.95673333  0.33350000  0.80495000  1.0
  O  O3  1  0.95673333  0.83350000  0.30495000  1.0
  O  O3  1  0.95673333  0.83350000  0.80495000  1.0
  O  O3  1  0.12340000  0.41650000  0.30495000  1.0
  O  O3  1  0.12340000  0.41650000  0.80495000  1.0
  O  O3  1  0.12340000  0.91650000  0.30495000  1.0
  O  O3  1  0.12340000  0.91650000  0.80495000  1.0
  O  O3  1  0.45673333  0.41650000  0.30495000  1.0
  O  O3  1  0.45673333  0.41650000  0.80495000  1.0
  O  O3  1  0.45673333  0.91650000  0.30495000  1.0
  O  O3  1  0.45673333  0.91650000  0.80495000  1.0
  O  O3  1  0.79006667  0.41650000  0.30495000  1.0
  O  O3  1  0.79006667  0.41650000  0.80495000  1.0
  O  O3  1  0.79006667  0.91650000  0.30495000  1.0
  O  O3  1  0.79006667  0.91650000  0.80495000  1.0
  O  O3  1  0.29006667  0.16650000  0.30495000  1.0
  O  O3  1  0.29006667  0.16650000  0.80495000  1.0
  O  O3  1  0.29006667  0.66650000  0.30495000  1.0
  O  O3  1  0.29006667  0.66650000  0.80495000  1.0
  O  O3  1  0.62340000  0.16650000  0.30495000  1.0
  O  O3  1  0.62340000  0.16650000  0.80495000  1.0
  O  O3  1  0.62340000  0.66650000  0.30495000  1.0
  O  O3  1  0.62340000  0.66650000  0.80495000  1.0
  O  O3  1  0.95673333  0.16650000  0.30495000  1.0
  O  O3  1  0.95673333  0.16650000  0.80495000  1.0
  O  O3  1  0.95673333  0.66650000  0.30495000  1.0
  O  O3  1  0.95673333  0.66650000  0.80495000  1.0
  F  F672  1  0.04453333  0.00000000  0.19960000  1.0
  F  F673  1  0.04453333  0.00000000  0.69960000  1.0
  F  F674  1  0.04453333  0.50000000  0.19960000  1.0
  F  F675  1  0.04453333  0.50000000  0.69960000  1.0
  F  F676  1  0.37786667  0.00000000  0.19960000  1.0
  F  F677  1  0.37786667  0.00000000  0.69960000  1.0
  F  F678  1  0.37786667  0.50000000  0.19960000  1.0
  F  F679  1  0.37786667  0.50000000  0.69960000  1.0
  F  F680  1  0.71120000  0.00000000  0.19960000  1.0
  F  F681  1  0.71120000  0.00000000  0.69960000  1.0
  F  F682  1  0.71120000  0.50000000  0.19960000  1.0
  F  F683  1  0.71120000  0.50000000  0.69960000  1.0
  F  F684  1  0.21120000  0.25000000  0.19960000  1.0
  F  F685  1  0.21120000  0.25000000  0.69960000  1.0
  F  F686  1  0.21120000  0.75000000  0.19960000  1.0
  F  F687  1  0.21120000  0.75000000  0.69960000  1.0
  F  F688  1  0.54453333  0.25000000  0.19960000  1.0
  F  F689  1  0.54453333  0.25000000  0.69960000  1.0
  F  F690  1  0.54453333  0.75000000  0.19960000  1.0
  F  F691  1  0.54453333  0.75000000  0.69960000  1.0
  F  F692  1  0.87786667  0.25000000  0.19960000  1.0
  F  F693  1  0.87786667  0.25000000  0.69960000  1.0
  F  F694  1  0.87786667  0.75000000  0.19960000  1.0
  F  F695  1  0.87786667  0.75000000  0.69960000  1.0
  F  F696  1  0.28880000  0.00000000  0.30040000  1.0
  F  F697  1  0.28880000  0.00000000  0.80040000  1.0
  F  F698  1  0.28880000  0.50000000  0.30040000  1.0
  F  F699  1  0.28880000  0.50000000  0.80040000  1.0
  F  F700  1  0.62213333  0.00000000  0.30040000  1.0
  F  F701  1  0.62213333  0.00000000  0.80040000  1.0
  F  F702  1  0.62213333  0.50000000  0.30040000  1.0
  F  F703  1  0.62213333  0.50000000  0.80040000  1.0
  F  F704  1  0.95546667  0.00000000  0.30040000  1.0
  F  F705  1  0.95546667  0.00000000  0.80040000  1.0
  F  F706  1  0.95546667  0.50000000  0.30040000  1.0
  F  F707  1  0.95546667  0.50000000  0.80040000  1.0
  F  F708  1  0.12213333  0.25000000  0.30040000  1.0
  F  F709  1  0.12213333  0.25000000  0.80040000  1.0
  F  F710  1  0.12213333  0.75000000  0.30040000  1.0
  F  F711  1  0.12213333  0.75000000  0.80040000  1.0
  F  F712  1  0.45546667  0.25000000  0.30040000  1.0
  F  F713  1  0.45546667  0.25000000  0.80040000  1.0
  F  F714  1  0.45546667  0.75000000  0.30040000  1.0
  F  F715  1  0.45546667  0.75000000  0.80040000  1.0
  F  F716  1  0.78880000  0.25000000  0.30040000  1.0
  F  F717  1  0.78880000  0.25000000  0.80040000  1.0
  F  F718  1  0.78880000  0.75000000  0.30040000  1.0
  F  F719  1  0.78880000  0.75000000  0.80040000  1.0
