# generated using pymatgen
data_Cs2SnPbI6
_symmetry_space_group_name_H-M   'P 1'
_cell_length_a   23.69980000
_cell_length_b   23.69980000
_cell_length_c   23.69980000
_cell_angle_alpha   90.00000000
_cell_angle_beta   90.00000000
_cell_angle_gamma   90.00000000
_symmetry_Int_Tables_number   1
_chemical_formula_structural   Cs2SnPbI6
_chemical_formula_sum   'Cs64 Sn32 Pb32 I192'
_cell_volume   13311.71598884
_cell_formula_units_Z   32
loop_
 _symmetry_equiv_pos_site_id
 _symmetry_equiv_pos_as_xyz
  1  'x, y, z'
loop_
 _atom_site_type_symbol
 _atom_site_label
 _atom_site_symmetry_multiplicity
 _atom_site_fract_x
 _atom_site_fract_y
 _atom_site_fract_z
 _atom_site_occupancy
  Cs  Cs1  1  0.00000000  0.00000000  0.00000000  1.0
  Cs  Cs1  1  0.00000000  0.00000000  0.25000000  1.0
  Cs  Cs1  1  0.00000000  0.00000000  0.50000000  1.0
  Cs  Cs1  1  0.00000000  0.00000000  0.75000000  1.0
  Cs  Cs1  1  0.00000000  0.25000000  0.00000000  1.0
  Cs  Cs1  1  0.00000000  0.25000000  0.25000000  1.0
  Cs  Cs1  1  0.00000000  0.25000000  0.50000000  1.0
  Cs  Cs1  1  0.00000000  0.25000000  0.75000000  1.0
  Cs  Cs1  1  0.00000000  0.50000000  0.00000000  1.0
  Cs  Cs1  1  0.00000000  0.50000000  0.25000000  1.0
  Cs  Cs1  1  0.00000000  0.50000000  0.50000000  1.0
  Cs  Cs1  1  0.00000000  0.50000000  0.75000000  1.0
  Cs  Cs1  1  0.00000000  0.75000000  0.00000000  1.0
  Cs  Cs1  1  0.00000000  0.75000000  0.25000000  1.0
  Cs  Cs1  1  0.00000000  0.75000000  0.50000000  1.0
  Cs  Cs1  1  0.00000000  0.75000000  0.75000000  1.0
  Cs  Cs1  1  0.25000000  0.00000000  0.00000000  1.0
  Cs  Cs1  1  0.25000000  0.00000000  0.25000000  1.0
  Cs  Cs1  1  0.25000000  0.00000000  0.50000000  1.0
  Cs  Cs1  1  0.25000000  0.00000000  0.75000000  1.0
  Cs  Cs1  1  0.25000000  0.25000000  0.00000000  1.0
  Cs  Cs1  1  0.25000000  0.25000000  0.25000000  1.0
  Cs  Cs1  1  0.25000000  0.25000000  0.50000000  1.0
  Cs  Cs1  1  0.25000000  0.25000000  0.75000000  1.0
  Cs  Cs1  1  0.25000000  0.50000000  0.00000000  1.0
  Cs  Cs1  1  0.25000000  0.50000000  0.25000000  1.0
  Cs  Cs1  1  0.25000000  0.50000000  0.50000000  1.0
  Cs  Cs1  1  0.25000000  0.50000000  0.75000000  1.0
  Cs  Cs1  1  0.25000000  0.75000000  0.00000000  1.0
  Cs  Cs1  1  0.25000000  0.75000000  0.25000000  1.0
  Cs  Cs1  1  0.25000000  0.75000000  0.50000000  1.0
  Cs  Cs1  1  0.25000000  0.75000000  0.75000000  1.0
  Cs  Cs1  1  0.50000000  0.00000000  0.00000000  1.0
  Cs  Cs1  1  0.50000000  0.00000000  0.25000000  1.0
  Cs  Cs1  1  0.50000000  0.00000000  0.50000000  1.0
  Cs  Cs1  1  0.50000000  0.00000000  0.75000000  1.0
  Cs  Cs1  1  0.50000000  0.25000000  0.00000000  1.0
  Cs  Cs1  1  0.50000000  0.25000000  0.25000000  1.0
  Cs  Cs1  1  0.50000000  0.25000000  0.50000000  1.0
  Cs  Cs1  1  0.50000000  0.25000000  0.75000000  1.0
  Cs  Cs1  1  0.50000000  0.50000000  0.00000000  1.0
  Cs  Cs1  1  0.50000000  0.50000000  0.25000000  1.0
  Cs  Cs1  1  0.50000000  0.50000000  0.50000000  1.0
  Cs  Cs1  1  0.50000000  0.50000000  0.75000000  1.0
  Cs  Cs1  1  0.50000000  0.75000000  0.00000000  1.0
  Cs  Cs1  1  0.50000000  0.75000000  0.25000000  1.0
  Cs  Cs1  1  0.50000000  0.75000000  0.50000000  1.0
  Cs  Cs1  1  0.50000000  0.75000000  0.75000000  1.0
  Cs  Cs1  1  0.75000000  0.00000000  0.00000000  1.0
  Cs  Cs1  1  0.75000000  0.00000000  0.25000000  1.0
  Cs  Cs1  1  0.75000000  0.00000000  0.50000000  1.0
  Cs  Cs1  1  0.75000000  0.00000000  0.75000000  1.0
  Cs  Cs1  1  0.75000000  0.25000000  0.00000000  1.0
  Cs  Cs1  1  0.75000000  0.25000000  0.25000000  1.0
  Cs  Cs1  1  0.75000000  0.25000000  0.50000000  1.0
  Cs  Cs1  1  0.75000000  0.25000000  0.75000000  1.0
  Cs  Cs1  1  0.75000000  0.50000000  0.00000000  1.0
  Cs  Cs1  1  0.75000000  0.50000000  0.25000000  1.0
  Cs  Cs1  1  0.75000000  0.50000000  0.50000000  1.0
  Cs  Cs1  1  0.75000000  0.50000000  0.75000000  1.0
  Cs  Cs1  1  0.75000000  0.75000000  0.00000000  1.0
  Cs  Cs1  1  0.75000000  0.75000000  0.25000000  1.0
  Cs  Cs1  1  0.75000000  0.75000000  0.50000000  1.0
  Cs  Cs1  1  0.75000000  0.75000000  0.75000000  1.0
  Sn  Sn1  1  0.62500000  0.12500000  0.12500000  1.0
  Sn  Sn1  1  0.87500000  0.37500000  0.37500000  1.0
  Sn  Sn1  1  0.37500000  0.87500000  0.87500000  1.0
  Sn  Sn1  1  0.37500000  0.37500000  0.12500000  1.0
  Sn  Sn1  1  0.12500000  0.87500000  0.62500000  1.0
  Sn  Sn1  1  0.12500000  0.62500000  0.87500000  1.0
  Sn  Sn1  1  0.62500000  0.12500000  0.87500000  1.0
  Sn  Sn1  1  0.37500000  0.62500000  0.37500000  1.0
  Sn  Sn1  1  0.87500000  0.87500000  0.12500000  1.0
  Sn  Sn1  1  0.87500000  0.12500000  0.87500000  1.0
  Sn  Sn1  1  0.37500000  0.12500000  0.37500000  1.0
  Sn  Sn1  1  0.37500000  0.87500000  0.37500000  1.0
  Sn  Sn1  1  0.12500000  0.87500000  0.87500000  1.0
  Sn  Sn1  1  0.37500000  0.12500000  0.62500000  1.0
  Sn  Sn1  1  0.87500000  0.12500000  0.12500000  1.0
  Sn  Sn1  1  0.62500000  0.87500000  0.62500000  1.0
  Sn  Sn1  1  0.12500000  0.12500000  0.37500000  1.0
  Sn  Sn1  1  0.87500000  0.37500000  0.87500000  1.0
  Sn  Sn1  1  0.37500000  0.37500000  0.62500000  1.0
  Sn  Sn1  1  0.62500000  0.87500000  0.87500000  1.0
  Sn  Sn1  1  0.37500000  0.62500000  0.87500000  1.0
  Sn  Sn1  1  0.62500000  0.37500000  0.62500000  1.0
  Sn  Sn1  1  0.62500000  0.62500000  0.62500000  1.0
  Sn  Sn1  1  0.87500000  0.12500000  0.37500000  1.0
  Sn  Sn1  1  0.37500000  0.87500000  0.12500000  1.0
  Sn  Sn1  1  0.12500000  0.12500000  0.62500000  1.0
  Sn  Sn1  1  0.37500000  0.37500000  0.37500000  1.0
  Sn  Sn1  1  0.37500000  0.12500000  0.87500000  1.0
  Sn  Sn1  1  0.12500000  0.37500000  0.37500000  1.0
  Sn  Sn1  1  0.62500000  0.12500000  0.37500000  1.0
  Sn  Sn1  1  0.62500000  0.37500000  0.12500000  1.0
  Sn  Sn1  1  0.87500000  0.37500000  0.62500000  1.0
  Pb  Sn1  1  0.12500000  0.62500000  0.62500000  1.0
  Pb  Sn1  1  0.62500000  0.62500000  0.37500000  1.0
  Pb  Sn1  1  0.37500000  0.62500000  0.62500000  1.0
  Pb  Sn1  1  0.62500000  0.62500000  0.12500000  1.0
  Pb  Sn1  1  0.87500000  0.62500000  0.12500000  1.0
  Pb  Sn1  1  0.37500000  0.87500000  0.62500000  1.0
  Pb  Sn1  1  0.37500000  0.37500000  0.87500000  1.0
  Pb  Sn1  1  0.87500000  0.87500000  0.62500000  1.0
  Pb  Sn1  1  0.87500000  0.87500000  0.87500000  1.0
  Pb  Sn1  1  0.87500000  0.87500000  0.37500000  1.0
  Pb  Sn1  1  0.37500000  0.62500000  0.12500000  1.0
  Pb  Sn1  1  0.62500000  0.12500000  0.62500000  1.0
  Pb  Sn1  1  0.87500000  0.37500000  0.12500000  1.0
  Pb  Sn1  1  0.12500000  0.87500000  0.37500000  1.0
  Pb  Sn1  1  0.37500000  0.12500000  0.12500000  1.0
  Pb  Sn1  1  0.12500000  0.62500000  0.12500000  1.0
  Pb  Sn1  1  0.87500000  0.62500000  0.37500000  1.0
  Pb  Sn1  1  0.12500000  0.12500000  0.12500000  1.0
  Pb  Sn1  1  0.62500000  0.62500000  0.87500000  1.0
  Pb  Sn1  1  0.12500000  0.62500000  0.37500000  1.0
  Pb  Sn1  1  0.12500000  0.87500000  0.12500000  1.0
  Pb  Sn1  1  0.87500000  0.62500000  0.87500000  1.0
  Pb  Sn1  1  0.62500000  0.37500000  0.87500000  1.0
  Pb  Sn1  1  0.12500000  0.37500000  0.87500000  1.0
  Pb  Sn1  1  0.12500000  0.37500000  0.62500000  1.0
  Pb  Sn1  1  0.62500000  0.37500000  0.37500000  1.0
  Pb  Sn1  1  0.12500000  0.37500000  0.12500000  1.0
  Pb  Sn1  1  0.62500000  0.87500000  0.37500000  1.0
  Pb  Sn1  1  0.12500000  0.12500000  0.87500000  1.0
  Pb  Sn1  1  0.87500000  0.62500000  0.62500000  1.0
  Pb  Sn1  1  0.62500000  0.87500000  0.12500000  1.0
  Pb  Sn1  1  0.87500000  0.12500000  0.62500000  1.0
  I  I1  1  0.12500000  0.00000000  0.12500000  1.0
  I  I1  1  0.12500000  0.00000000  0.37500000  1.0
  I  I1  1  0.12500000  0.00000000  0.62500000  1.0
  I  I1  1  0.12500000  0.00000000  0.87500000  1.0
  I  I1  1  0.12500000  0.25000000  0.12500000  1.0
  I  I1  1  0.12500000  0.25000000  0.37500000  1.0
  I  I1  1  0.12500000  0.25000000  0.62500000  1.0
  I  I1  1  0.12500000  0.25000000  0.87500000  1.0
  I  I1  1  0.12500000  0.50000000  0.12500000  1.0
  I  I1  1  0.12500000  0.50000000  0.37500000  1.0
  I  I1  1  0.12500000  0.50000000  0.62500000  1.0
  I  I1  1  0.12500000  0.50000000  0.87500000  1.0
  I  I1  1  0.12500000  0.75000000  0.12500000  1.0
  I  I1  1  0.12500000  0.75000000  0.37500000  1.0
  I  I1  1  0.12500000  0.75000000  0.62500000  1.0
  I  I1  1  0.12500000  0.75000000  0.87500000  1.0
  I  I1  1  0.37500000  0.00000000  0.12500000  1.0
  I  I1  1  0.37500000  0.00000000  0.37500000  1.0
  I  I1  1  0.37500000  0.00000000  0.62500000  1.0
  I  I1  1  0.37500000  0.00000000  0.87500000  1.0
  I  I1  1  0.37500000  0.25000000  0.12500000  1.0
  I  I1  1  0.37500000  0.25000000  0.37500000  1.0
  I  I1  1  0.37500000  0.25000000  0.62500000  1.0
  I  I1  1  0.37500000  0.25000000  0.87500000  1.0
  I  I1  1  0.37500000  0.50000000  0.12500000  1.0
  I  I1  1  0.37500000  0.50000000  0.37500000  1.0
  I  I1  1  0.37500000  0.50000000  0.62500000  1.0
  I  I1  1  0.37500000  0.50000000  0.87500000  1.0
  I  I1  1  0.37500000  0.75000000  0.12500000  1.0
  I  I1  1  0.37500000  0.75000000  0.37500000  1.0
  I  I1  1  0.37500000  0.75000000  0.62500000  1.0
  I  I1  1  0.37500000  0.75000000  0.87500000  1.0
  I  I1  1  0.62500000  0.00000000  0.12500000  1.0
  I  I1  1  0.62500000  0.00000000  0.37500000  1.0
  I  I1  1  0.62500000  0.00000000  0.62500000  1.0
  I  I1  1  0.62500000  0.00000000  0.87500000  1.0
  I  I1  1  0.62500000  0.25000000  0.12500000  1.0
  I  I1  1  0.62500000  0.25000000  0.37500000  1.0
  I  I1  1  0.62500000  0.25000000  0.62500000  1.0
  I  I1  1  0.62500000  0.25000000  0.87500000  1.0
  I  I1  1  0.62500000  0.50000000  0.12500000  1.0
  I  I1  1  0.62500000  0.50000000  0.37500000  1.0
  I  I1  1  0.62500000  0.50000000  0.62500000  1.0
  I  I1  1  0.62500000  0.50000000  0.87500000  1.0
  I  I1  1  0.62500000  0.75000000  0.12500000  1.0
  I  I1  1  0.62500000  0.75000000  0.37500000  1.0
  I  I1  1  0.62500000  0.75000000  0.62500000  1.0
  I  I1  1  0.62500000  0.75000000  0.87500000  1.0
  I  I1  1  0.87500000  0.00000000  0.12500000  1.0
  I  I1  1  0.87500000  0.00000000  0.37500000  1.0
  I  I1  1  0.87500000  0.00000000  0.62500000  1.0
  I  I1  1  0.87500000  0.00000000  0.87500000  1.0
  I  I1  1  0.87500000  0.25000000  0.12500000  1.0
  I  I1  1  0.87500000  0.25000000  0.37500000  1.0
  I  I1  1  0.87500000  0.25000000  0.62500000  1.0
  I  I1  1  0.87500000  0.25000000  0.87500000  1.0
  I  I1  1  0.87500000  0.50000000  0.12500000  1.0
  I  I1  1  0.87500000  0.50000000  0.37500000  1.0
  I  I1  1  0.87500000  0.50000000  0.62500000  1.0
  I  I1  1  0.87500000  0.50000000  0.87500000  1.0
  I  I1  1  0.87500000  0.75000000  0.12500000  1.0
  I  I1  1  0.87500000  0.75000000  0.37500000  1.0
  I  I1  1  0.87500000  0.75000000  0.62500000  1.0
  I  I1  1  0.87500000  0.75000000  0.87500000  1.0
  I  I2  1  0.12500000  0.12500000  0.00000000  1.0
  I  I2  1  0.12500000  0.12500000  0.25000000  1.0
  I  I2  1  0.12500000  0.12500000  0.50000000  1.0
  I  I2  1  0.12500000  0.12500000  0.75000000  1.0
  I  I2  1  0.12500000  0.37500000  0.00000000  1.0
  I  I2  1  0.12500000  0.37500000  0.25000000  1.0
  I  I2  1  0.12500000  0.37500000  0.50000000  1.0
  I  I2  1  0.12500000  0.37500000  0.75000000  1.0
  I  I2  1  0.12500000  0.62500000  0.00000000  1.0
  I  I2  1  0.12500000  0.62500000  0.25000000  1.0
  I  I2  1  0.12500000  0.62500000  0.50000000  1.0
  I  I2  1  0.12500000  0.62500000  0.75000000  1.0
  I  I2  1  0.12500000  0.87500000  0.00000000  1.0
  I  I2  1  0.12500000  0.87500000  0.25000000  1.0
  I  I2  1  0.12500000  0.87500000  0.50000000  1.0
  I  I2  1  0.12500000  0.87500000  0.75000000  1.0
  I  I2  1  0.37500000  0.12500000  0.00000000  1.0
  I  I2  1  0.37500000  0.12500000  0.25000000  1.0
  I  I2  1  0.37500000  0.12500000  0.50000000  1.0
  I  I2  1  0.37500000  0.12500000  0.75000000  1.0
  I  I2  1  0.37500000  0.37500000  0.00000000  1.0
  I  I2  1  0.37500000  0.37500000  0.25000000  1.0
  I  I2  1  0.37500000  0.37500000  0.50000000  1.0
  I  I2  1  0.37500000  0.37500000  0.75000000  1.0
  I  I2  1  0.37500000  0.62500000  0.00000000  1.0
  I  I2  1  0.37500000  0.62500000  0.25000000  1.0
  I  I2  1  0.37500000  0.62500000  0.50000000  1.0
  I  I2  1  0.37500000  0.62500000  0.75000000  1.0
  I  I2  1  0.37500000  0.87500000  0.00000000  1.0
  I  I2  1  0.37500000  0.87500000  0.25000000  1.0
  I  I2  1  0.37500000  0.87500000  0.50000000  1.0
  I  I2  1  0.37500000  0.87500000  0.75000000  1.0
  I  I2  1  0.62500000  0.12500000  0.00000000  1.0
  I  I2  1  0.62500000  0.12500000  0.25000000  1.0
  I  I2  1  0.62500000  0.12500000  0.50000000  1.0
  I  I2  1  0.62500000  0.12500000  0.75000000  1.0
  I  I2  1  0.62500000  0.37500000  0.00000000  1.0
  I  I2  1  0.62500000  0.37500000  0.25000000  1.0
  I  I2  1  0.62500000  0.37500000  0.50000000  1.0
  I  I2  1  0.62500000  0.37500000  0.75000000  1.0
  I  I2  1  0.62500000  0.62500000  0.00000000  1.0
  I  I2  1  0.62500000  0.62500000  0.25000000  1.0
  I  I2  1  0.62500000  0.62500000  0.50000000  1.0
  I  I2  1  0.62500000  0.62500000  0.75000000  1.0
  I  I2  1  0.62500000  0.87500000  0.00000000  1.0
  I  I2  1  0.62500000  0.87500000  0.25000000  1.0
  I  I2  1  0.62500000  0.87500000  0.50000000  1.0
  I  I2  1  0.62500000  0.87500000  0.75000000  1.0
  I  I2  1  0.87500000  0.12500000  0.00000000  1.0
  I  I2  1  0.87500000  0.12500000  0.25000000  1.0
  I  I2  1  0.87500000  0.12500000  0.50000000  1.0
  I  I2  1  0.87500000  0.12500000  0.75000000  1.0
  I  I2  1  0.87500000  0.37500000  0.00000000  1.0
  I  I2  1  0.87500000  0.37500000  0.25000000  1.0
  I  I2  1  0.87500000  0.37500000  0.50000000  1.0
  I  I2  1  0.87500000  0.37500000  0.75000000  1.0
  I  I2  1  0.87500000  0.62500000  0.00000000  1.0
  I  I2  1  0.87500000  0.62500000  0.25000000  1.0
  I  I2  1  0.87500000  0.62500000  0.50000000  1.0
  I  I2  1  0.87500000  0.62500000  0.75000000  1.0
  I  I2  1  0.87500000  0.87500000  0.00000000  1.0
  I  I2  1  0.87500000  0.87500000  0.25000000  1.0
  I  I2  1  0.87500000  0.87500000  0.50000000  1.0
  I  I2  1  0.87500000  0.87500000  0.75000000  1.0
  I  I3  1  0.00000000  0.12500000  0.12500000  1.0
  I  I3  1  0.00000000  0.12500000  0.37500000  1.0
  I  I3  1  0.00000000  0.12500000  0.62500000  1.0
  I  I3  1  0.00000000  0.12500000  0.87500000  1.0
  I  I3  1  0.00000000  0.37500000  0.12500000  1.0
  I  I3  1  0.00000000  0.37500000  0.37500000  1.0
  I  I3  1  0.00000000  0.37500000  0.62500000  1.0
  I  I3  1  0.00000000  0.37500000  0.87500000  1.0
  I  I3  1  0.00000000  0.62500000  0.12500000  1.0
  I  I3  1  0.00000000  0.62500000  0.37500000  1.0
  I  I3  1  0.00000000  0.62500000  0.62500000  1.0
  I  I3  1  0.00000000  0.62500000  0.87500000  1.0
  I  I3  1  0.00000000  0.87500000  0.12500000  1.0
  I  I3  1  0.00000000  0.87500000  0.37500000  1.0
  I  I3  1  0.00000000  0.87500000  0.62500000  1.0
  I  I3  1  0.00000000  0.87500000  0.87500000  1.0
  I  I3  1  0.25000000  0.12500000  0.12500000  1.0
  I  I3  1  0.25000000  0.12500000  0.37500000  1.0
  I  I3  1  0.25000000  0.12500000  0.62500000  1.0
  I  I3  1  0.25000000  0.12500000  0.87500000  1.0
  I  I3  1  0.25000000  0.37500000  0.12500000  1.0
  I  I3  1  0.25000000  0.37500000  0.37500000  1.0
  I  I3  1  0.25000000  0.37500000  0.62500000  1.0
  I  I3  1  0.25000000  0.37500000  0.87500000  1.0
  I  I3  1  0.25000000  0.62500000  0.12500000  1.0
  I  I3  1  0.25000000  0.62500000  0.37500000  1.0
  I  I3  1  0.25000000  0.62500000  0.62500000  1.0
  I  I3  1  0.25000000  0.62500000  0.87500000  1.0
  I  I3  1  0.25000000  0.87500000  0.12500000  1.0
  I  I3  1  0.25000000  0.87500000  0.37500000  1.0
  I  I3  1  0.25000000  0.87500000  0.62500000  1.0
  I  I3  1  0.25000000  0.87500000  0.87500000  1.0
  I  I3  1  0.50000000  0.12500000  0.12500000  1.0
  I  I3  1  0.50000000  0.12500000  0.37500000  1.0
  I  I3  1  0.50000000  0.12500000  0.62500000  1.0
  I  I3  1  0.50000000  0.12500000  0.87500000  1.0
  I  I3  1  0.50000000  0.37500000  0.12500000  1.0
  I  I3  1  0.50000000  0.37500000  0.37500000  1.0
  I  I3  1  0.50000000  0.37500000  0.62500000  1.0
  I  I3  1  0.50000000  0.37500000  0.87500000  1.0
  I  I3  1  0.50000000  0.62500000  0.12500000  1.0
  I  I3  1  0.50000000  0.62500000  0.37500000  1.0
  I  I3  1  0.50000000  0.62500000  0.62500000  1.0
  I  I3  1  0.50000000  0.62500000  0.87500000  1.0
  I  I3  1  0.50000000  0.87500000  0.12500000  1.0
  I  I3  1  0.50000000  0.87500000  0.37500000  1.0
  I  I3  1  0.50000000  0.87500000  0.62500000  1.0
  I  I3  1  0.50000000  0.87500000  0.87500000  1.0
  I  I3  1  0.75000000  0.12500000  0.12500000  1.0
  I  I3  1  0.75000000  0.12500000  0.37500000  1.0
  I  I3  1  0.75000000  0.12500000  0.62500000  1.0
  I  I3  1  0.75000000  0.12500000  0.87500000  1.0
  I  I3  1  0.75000000  0.37500000  0.12500000  1.0
  I  I3  1  0.75000000  0.37500000  0.37500000  1.0
  I  I3  1  0.75000000  0.37500000  0.62500000  1.0
  I  I3  1  0.75000000  0.37500000  0.87500000  1.0
  I  I3  1  0.75000000  0.62500000  0.12500000  1.0
  I  I3  1  0.75000000  0.62500000  0.37500000  1.0
  I  I3  1  0.75000000  0.62500000  0.62500000  1.0
  I  I3  1  0.75000000  0.62500000  0.87500000  1.0
  I  I3  1  0.75000000  0.87500000  0.12500000  1.0
  I  I3  1  0.75000000  0.87500000  0.37500000  1.0
  I  I3  1  0.75000000  0.87500000  0.62500000  1.0
  I  I3  1  0.75000000  0.87500000  0.87500000  1.0
