# generated using pymatgen
data_Fe45Co19
_symmetry_space_group_name_H-M   'P 1'
_cell_length_a   11.41619489
_cell_length_b   11.41509107
_cell_length_c   11.41460966
_cell_angle_alpha   89.99958800
_cell_angle_beta   89.99505622
_cell_angle_gamma   90.00359304
_symmetry_Int_Tables_number   1
_chemical_formula_structural   Fe45Co19
_chemical_formula_sum   'Fe90 Co38'
_cell_volume   1487.51658624
_cell_formula_units_Z   2
loop_
 _symmetry_equiv_pos_site_id
 _symmetry_equiv_pos_as_xyz
  1  'x, y, z'
loop_
 _atom_site_type_symbol
 _atom_site_label
 _atom_site_symmetry_multiplicity
 _atom_site_fract_x
 _atom_site_fract_y
 _atom_site_fract_z
 _atom_site_occupancy
  Fe  Fe0  1  -0.00025430  -0.00367664  -0.00002121  1
  Fe  Fe1  1  0.25066442  0.50139183  -0.00043752  1
  Fe  Fe2  1  0.74866625  0.24916380  0.49803762  1
  Fe  Fe3  1  0.12715060  0.87314698  0.12286474  1
  Fe  Fe4  1  0.87538501  0.12470439  0.62439714  1
  Fe  Fe5  1  0.74983287  -0.00251944  0.74838389  1
  Fe  Fe6  1  -0.00087722  -0.00119966  0.49933478  1
  Fe  Fe7  1  0.87574618  0.38068361  0.12667573  1
  Fe  Fe8  1  0.12653478  0.12361304  0.62336114  1
  Fe  Fe9  1  0.49994878  0.25017582  0.49924557  1
  Fe  Fe10  1  0.62771855  0.62790100  0.12367940  1
  Fe  Fe11  1  0.37524447  0.37204410  0.62827152  1
  Fe  Fe12  1  0.12451928  0.12414621  0.37164313  1
  Fe  Fe13  1  0.62533337  0.37795641  0.62417324  1
  Fe  Fe14  1  0.87318011  0.12491325  0.87656314  1
  Fe  Fe15  1  0.74713949  0.74869906  0.50550479  1
  Fe  Fe16  1  0.00216109  0.49839897  0.49697736  1
  Fe  Fe17  1  0.00134870  0.75153924  0.50180992  1
  Fe  Fe18  1  0.50109326  0.50271004  0.00056656  1
  Fe  Fe19  1  0.37431025  0.37285528  0.87440688  1
  Fe  Fe20  1  0.62259709  0.37840546  0.37430891  1
  Fe  Fe21  1  0.12230908  0.37743846  0.12896220  1
  Fe  Fe22  1  0.25130336  0.50179749  0.75040891  1
  Fe  Fe23  1  0.62563803  0.87105817  0.12535663  1
  Fe  Fe24  1  0.12636892  0.37596391  0.62515571  1
  Fe  Fe25  1  0.87138195  0.87166120  0.12707274  1
  Fe  Fe26  1  0.62519444  0.37558158  0.87457420  1
  Fe  Fe27  1  0.62384137  0.37621191  0.12653175  1
  Fe  Fe28  1  0.87545866  0.12390968  0.12599944  1
  Fe  Fe29  1  0.37862113  0.12314201  0.37008274  1
  Fe  Fe30  1  -0.00078580  0.50122253  0.75143779  1
  Fe  Fe31  1  0.49786743  -0.00205807  0.75015775  1
  Fe  Fe32  1  0.25004689  0.24730666  0.24620342  1
  Fe  Fe33  1  0.87478728  0.62647657  0.37795498  1
  Fe  Fe34  1  0.24981865  0.75108826  0.75285814  1
  Fe  Fe35  1  0.37532466  0.62894572  0.12639226  1
  Fe  Fe36  1  0.25018959  -0.00175428  0.75454873  1
  Fe  Fe37  1  0.37824404  0.37572666  0.12626802  1
  Fe  Fe38  1  0.62198249  0.12463744  0.12670943  1
  Fe  Fe39  1  0.37709043  0.62729623  0.62475783  1
  Fe  Fe40  1  0.87470202  0.37611913  0.37267693  1
  Fe  Fe41  1  0.37625235  0.37737042  0.37096490  1
  Fe  Fe42  1  0.62409552  0.12154236  0.62303053  1
  Fe  Fe43  1  0.37332544  0.12800875  0.87771919  1
  Fe  Fe44  1  0.74919021  0.25065730  0.00207064  1
  Fe  Fe45  1  0.50416277  0.75484945  0.74577684  1
  Fe  Fe46  1  0.49889786  -0.00328957  0.00058695  1
  Fe  Fe47  1  0.75078307  0.50390238  0.74946454  1
  Fe  Fe48  1  0.12675810  0.87534408  0.62591925  1
  Fe  Fe49  1  0.25076295  0.24999497  0.49771197  1
  Fe  Fe50  1  0.87214557  0.87308292  0.37670530  1
  Fe  Fe51  1  -0.00013545  0.25169490  0.00262363  1
  Fe  Fe52  1  0.74864861  0.24930850  0.24974091  1
  Fe  Fe53  1  0.12723354  0.62605296  0.37563068  1
  Fe  Fe54  1  0.12331611  0.62712513  0.87671436  1
  Fe  Fe55  1  0.74827475  0.24926039  0.74912596  1
  Fe  Fe56  1  0.25286391  0.75070074  0.49836587  1
  Fe  Fe57  1  0.87290961  0.62607935  0.88002815  1
  Fe  Fe58  1  0.00145077  0.25131318  0.49729572  1
  Fe  Fe59  1  0.87383662  0.37745916  0.62376376  1
  Fe  Fe60  1  0.50106083  0.25062976  -0.00051048  1
  Fe  Fe61  1  0.74758459  -0.00274559  0.25216023  1
  Fe  Fe62  1  0.12322914  0.62623480  0.12349783  1
  Fe  Fe63  1  0.00116397  0.24935998  0.75024845  1
  Fe  Fe64  1  0.37804471  0.87237672  0.37215062  1
  Fe  Fe65  1  0.12718341  0.12539906  0.88060001  1
  Fe  Fe66  1  0.12788060  0.37453135  0.87476266  1
  Fe  Fe67  1  0.37421028  0.12608977  0.62669272  1
  Fe  Fe68  1  -0.00191686  0.74808952  0.24856290  1
  Fe  Fe69  1  0.87307390  0.37566145  0.87665521  1
  Fe  Fe70  1  0.62119788  0.11961731  0.37438098  1
  Fe  Fe71  1  0.37812925  0.62829286  0.87485696  1
  Fe  Fe72  1  0.25320391  0.50061044  0.49967118  1
  Fe  Fe73  1  0.00112758  -0.00063261  0.75081978  1
  Fe  Fe74  1  0.62533595  0.12290786  0.87572282  1
  Fe  Fe75  1  0.12525608  0.62522582  0.62466150  1
  Fe  Fe76  1  0.61896965  0.62535055  0.38029839  1
  Fe  Fe77  1  0.49958109  0.49929732  0.74964197  1
  Fe  Fe78  1  0.62602463  0.62893475  0.87430015  1
  Fe  Fe79  1  0.37471697  0.86945797  0.12350483  1
  Fe  Fe80  1  0.87244004  0.87349185  0.87364858  1
  Fe  Fe81  1  0.25207261  -0.00022799  0.24523876  1
  Fe  Fe82  1  -0.00051828  -0.00227546  0.24928743  1
  Fe  Fe83  1  -0.00327422  0.74994772  0.74901494  1
  Fe  Fe84  1  0.12604964  0.87508952  0.37352325  1
  Fe  Fe85  1  0.87595623  0.12453322  0.37244724  1
  Fe  Fe86  1  0.74866383  -0.00224358  0.00120261  1
  Fe  Fe87  1  0.74966886  0.50493155  0.25105147  1
  Fe  Fe88  1  0.25294317  -0.00108082  0.49844110  1
  Fe  Fe89  1  0.25010220  0.50381075  0.25097535  1
  Co  Co90  1  0.24971036  0.25224538  0.00546178  1
  Co  Co91  1  0.00265008  0.49929397  -0.00181539  1
  Co  Co92  1  0.50306608  0.24859171  0.75021347  1
  Co  Co93  1  0.74588595  0.49944495  0.00006507  1
  Co  Co94  1  0.75343244  0.00201287  0.49859956  1
  Co  Co95  1  0.62441142  0.87637179  0.38025412  1
  Co  Co96  1  0.50333668  0.75011916  0.25095459  1
  Co  Co97  1  -0.00104670  0.50594296  0.25387117  1
  Co  Co98  1  -0.00028146  0.24917843  0.24901353  1
  Co  Co99  1  0.50051933  -0.00620734  0.24677985  1
  Co  Co100  1  0.24933671  0.74960773  0.25118208  1
  Co  Co101  1  0.24967166  0.74866060  -0.00314721  1
  Co  Co102  1  0.49373795  -0.00152280  0.50211015  1
  Co  Co103  1  0.12419841  0.87276673  0.87564561  1
  Co  Co104  1  0.62133191  0.62154952  0.62397744  1
  Co  Co105  1  0.37728073  0.87149643  0.87667965  1
  Co  Co106  1  0.37091870  0.87417490  0.62694443  1
  Co  Co107  1  0.75016485  0.74881781  0.74497868  1
  Co  Co108  1  0.62598886  0.87429818  0.87422211  1
  Co  Co109  1  0.87747893  0.62220255  0.62230015  1
  Co  Co110  1  0.62661986  0.88020618  0.62102424  1
  Co  Co111  1  -0.00202779  0.75249042  0.00182342  1
  Co  Co112  1  0.50196062  0.74918398  0.00105792  1
  Co  Co113  1  0.50160927  0.25054169  0.25115397  1
  Co  Co114  1  0.37758713  0.62562978  0.37431328  1
  Co  Co115  1  0.49840517  0.75349308  0.50269720  1
  Co  Co116  1  0.74800920  0.74753422  0.25333521  1
  Co  Co117  1  0.87394953  0.62305245  0.12143287  1
  Co  Co118  1  0.75028832  0.75233182  -0.00072339  1
  Co  Co119  1  0.49455939  0.49771405  0.50175773  1
  Co  Co120  1  0.25289526  -0.00249912  0.00044414  1
  Co  Co121  1  0.12823641  0.37475711  0.37139636  1
  Co  Co122  1  0.37915817  0.12581591  0.12421995  1
  Co  Co123  1  0.50171259  0.50523983  0.24773006  1
  Co  Co124  1  0.24735727  0.24843055  0.74979893  1
  Co  Co125  1  0.12311743  0.12165921  0.12362400  1
  Co  Co126  1  0.87458783  0.87596979  0.62373680  1
  Co  Co127  1  0.74941990  0.50145618  0.49828154  1
