# generated using pymatgen
data_Fe45Co19
_symmetry_space_group_name_H-M   'P 1'
_cell_length_a   11.41569940
_cell_length_b   11.41462407
_cell_length_c   11.41367759
_cell_angle_alpha   90.00943298
_cell_angle_beta   90.00313390
_cell_angle_gamma   90.00311856
_symmetry_Int_Tables_number   1
_chemical_formula_structural   Fe45Co19
_chemical_formula_sum   'Fe90 Co38'
_cell_volume   1487.26970197
_cell_formula_units_Z   2
loop_
 _symmetry_equiv_pos_site_id
 _symmetry_equiv_pos_as_xyz
  1  'x, y, z'
loop_
 _atom_site_type_symbol
 _atom_site_label
 _atom_site_symmetry_multiplicity
 _atom_site_fract_x
 _atom_site_fract_y
 _atom_site_fract_z
 _atom_site_occupancy
  Fe  Fe0  1  0.00317047  0.50105309  0.00061732  1
  Fe  Fe1  1  0.12552292  0.62725086  0.87503936  1
  Fe  Fe2  1  0.25204982  0.25067308  0.00032358  1
  Fe  Fe3  1  0.25449262  0.24842235  0.25050340  1
  Fe  Fe4  1  0.25364008  0.75406778  0.25324836  1
  Fe  Fe5  1  0.49900783  0.74992524  0.00199475  1
  Fe  Fe6  1  0.12334115  0.37323595  0.87372209  1
  Fe  Fe7  1  0.24907198  0.50080913  0.75019358  1
  Fe  Fe8  1  0.37605217  0.12066424  0.12555124  1
  Fe  Fe9  1  0.75338393  0.25180358  0.49807606  1
  Fe  Fe10  1  0.75114541  0.74884522  -0.00269432  1
  Fe  Fe11  1  0.37663073  0.37752921  0.87587688  1
  Fe  Fe12  1  0.12710666  0.62749767  0.62465171  1
  Fe  Fe13  1  0.87124700  0.61610372  0.62225797  1
  Fe  Fe14  1  0.25189376  0.75500515  0.49715775  1
  Fe  Fe15  1  0.87335856  0.37768755  0.12632030  1
  Fe  Fe16  1  0.37656639  0.87805087  0.12762102  1
  Fe  Fe17  1  0.25103619  0.50051250  0.24962186  1
  Fe  Fe18  1  0.49808668  0.75209577  0.49997553  1
  Fe  Fe19  1  0.62686527  0.12881422  0.12669851  1
  Fe  Fe20  1  0.87574246  0.37923751  0.37678416  1
  Fe  Fe21  1  0.50568804  -0.00044699  0.74497632  1
  Fe  Fe22  1  0.37540087  0.12242791  0.62334473  1
  Fe  Fe23  1  0.62549853  0.12634073  0.37589774  1
  Fe  Fe24  1  0.12458138  0.12617093  0.12516706  1
  Fe  Fe25  1  -0.00192321  0.74789887  0.50087037  1
  Fe  Fe26  1  0.12381727  0.87393228  0.12566596  1
  Fe  Fe27  1  0.12574682  0.12349140  0.37641020  1
  Fe  Fe28  1  0.37692583  0.12253945  0.87479317  1
  Fe  Fe29  1  0.24767803  -0.00097586  0.00034988  1
  Fe  Fe30  1  0.37417578  0.62410548  0.62417254  1
  Fe  Fe31  1  0.74787466  0.50341157  0.25502589  1
  Fe  Fe32  1  0.37572466  0.11682053  0.37597698  1
  Fe  Fe33  1  0.00117037  0.00023496  0.50136449  1
  Fe  Fe34  1  0.12392590  0.62765767  0.37467581  1
  Fe  Fe35  1  0.12657443  0.37379614  0.37377792  1
  Fe  Fe36  1  0.25204681  0.25010320  0.50077185  1
  Fe  Fe37  1  0.12418315  0.12633718  0.87453506  1
  Fe  Fe38  1  0.62412275  0.62898756  0.12920924  1
  Fe  Fe39  1  0.12478159  0.37335266  0.12624551  1
  Fe  Fe40  1  0.87509378  0.87678109  0.37616478  1
  Fe  Fe41  1  0.49690996  0.24963284  0.49907924  1
  Fe  Fe42  1  0.50243715  0.50049176  0.74927919  1
  Fe  Fe43  1  -0.00155863  0.00162259  0.75041311  1
  Fe  Fe44  1  -0.00370057  0.74992006  0.25010524  1
  Fe  Fe45  1  0.62366242  0.87225768  0.37485371  1
  Fe  Fe46  1  0.62238897  0.37160732  0.37200996  1
  Fe  Fe47  1  0.75401390  0.25270290  0.74990541  1
  Fe  Fe48  1  -0.00311409  0.24881947  -0.00084708  1
  Fe  Fe49  1  0.62499245  0.37279623  0.12916430  1
  Fe  Fe50  1  0.62607710  0.37340434  0.62402238  1
  Fe  Fe51  1  0.12434102  0.87246762  0.62619424  1
  Fe  Fe52  1  0.24826066  -0.00028574  0.74792574  1
  Fe  Fe53  1  -0.00443883  0.24906611  0.25198666  1
  Fe  Fe54  1  0.75151658  0.74731324  0.49727182  1
  Fe  Fe55  1  0.50576383  -0.00120314  0.00138284  1
  Fe  Fe56  1  0.62718748  0.87112294  0.87276983  1
  Fe  Fe57  1  0.12728951  0.62724979  0.12548917  1
  Fe  Fe58  1  0.37566693  0.62277874  0.87753058  1
  Fe  Fe59  1  0.25229043  0.75161197  -0.00037270  1
  Fe  Fe60  1  0.49856870  0.24974368  0.74793509  1
  Fe  Fe61  1  0.50181456  0.49906055  0.49900458  1
  Fe  Fe62  1  0.87320792  0.12254363  0.12308941  1
  Fe  Fe63  1  0.24946669  0.49877047  0.50009942  1
  Fe  Fe64  1  -0.00629801  0.74704314  0.75021143  1
  Fe  Fe65  1  0.12326746  0.87339171  0.87275618  1
  Fe  Fe66  1  0.49796310  0.74983814  0.74835656  1
  Fe  Fe67  1  -0.00206712  0.25079768  0.50020283  1
  Fe  Fe68  1  0.62582757  0.12740695  0.87327841  1
  Fe  Fe69  1  0.00036066  0.50152625  0.25110327  1
  Fe  Fe70  1  0.49924524  0.25004931  0.00198472  1
  Fe  Fe71  1  0.62284810  0.37407318  0.87550239  1
  Fe  Fe72  1  0.62721490  0.62689453  0.62537090  1
  Fe  Fe73  1  0.12319780  0.37301228  0.62651786  1
  Fe  Fe74  1  0.87707132  0.37958240  0.87308710  1
  Fe  Fe75  1  0.87336089  0.62378311  0.12520079  1
  Fe  Fe76  1  0.87316023  0.12520872  0.62349582  1
  Fe  Fe77  1  0.74743226  -0.00043243  0.74739243  1
  Fe  Fe78  1  -0.00289244  0.75077659  -0.00148822  1
  Fe  Fe79  1  0.87151132  0.87539401  0.62437976  1
  Fe  Fe80  1  0.00091218  0.00022356  0.24968603  1
  Fe  Fe81  1  0.25160828  0.24892797  0.74870905  1
  Fe  Fe82  1  0.37687026  0.37871854  0.12507982  1
  Fe  Fe83  1  0.37726118  0.62362101  0.37408035  1
  Fe  Fe84  1  0.74764601  -0.00083840  0.25061469  1
  Fe  Fe85  1  0.37661573  0.87750299  0.87366026  1
  Fe  Fe86  1  0.74522586  0.50181871  -0.00226961  1
  Fe  Fe87  1  0.37505689  0.87715300  0.62426443  1
  Fe  Fe88  1  0.75193800  0.25055741  -0.00087072  1
  Fe  Fe89  1  0.87235955  0.87779553  0.12173253  1
  Co  Co90  1  0.62118233  0.62978104  0.37381632  1
  Co  Co91  1  0.12429105  0.12585064  0.62355447  1
  Co  Co92  1  0.00256334  0.50332346  0.74832461  1
  Co  Co93  1  0.87447935  0.12047865  0.37670379  1
  Co  Co94  1  0.75486522  0.24925480  0.25219319  1
  Co  Co95  1  0.75560763  0.74687830  0.75099490  1
  Co  Co96  1  0.62265632  0.62936082  0.87316270  1
  Co  Co97  1  0.75440577  0.74988248  0.25312120  1
  Co  Co98  1  0.24717985  0.49907110  -0.00024361  1
  Co  Co99  1  0.49592977  0.75147886  0.24949568  1
  Co  Co100  1  0.37506170  0.37717605  0.37495908  1
  Co  Co101  1  0.50114124  0.50080739  0.25005385  1
  Co  Co102  1  0.87727050  0.62263459  0.37744677  1
  Co  Co103  1  0.74348854  0.00085087  -0.00038584  1
  Co  Co104  1  0.62795094  0.86958474  0.12582066  1
  Co  Co105  1  0.25329360  0.75028432  0.75063414  1
  Co  Co106  1  0.24613694  -0.00233124  0.25050083  1
  Co  Co107  1  0.50656226  0.00010195  0.24784148  1
  Co  Co108  1  -0.00410270  0.24794643  0.74900512  1
  Co  Co109  1  0.62851739  0.86758246  0.62513263  1
  Co  Co110  1  0.87473452  0.38012847  0.62368615  1
  Co  Co111  1  0.38023188  0.88229612  0.37518184  1
  Co  Co112  1  0.74361572  0.49951126  0.49512364  1
  Co  Co113  1  0.50707817  -0.00082506  0.50482537  1
  Co  Co114  1  0.87229500  0.87834469  0.87664894  1
  Co  Co115  1  0.37374865  0.62387958  0.12458125  1
  Co  Co116  1  0.87240933  0.12142060  0.87571582  1
  Co  Co117  1  0.37547626  0.37620239  0.62567042  1
  Co  Co118  1  0.49553236  0.24788937  0.25062651  1
  Co  Co119  1  0.74577118  0.49944889  0.75278543  1
  Co  Co120  1  0.74591134  -0.00103928  0.50111925  1
  Co  Co121  1  0.50462766  0.50148910  0.00229655  1
  Co  Co122  1  0.12005558  0.87376214  0.37584284  1
  Co  Co123  1  0.24656831  -0.00453363  0.50098703  1
  Co  Co124  1  0.00529655  0.49968408  0.49981804  1
  Co  Co125  1  0.62756358  0.13162524  0.62397448  1
  Co  Co126  1  0.87515236  0.62071875  0.87666949  1
  Co  Co127  1  0.00320964  0.00042722  -0.00095284  1
