# generated using pymatgen
data_Fe45Co19
_symmetry_space_group_name_H-M   'P 1'
_cell_length_a   11.41613270
_cell_length_b   11.41449897
_cell_length_c   11.41623858
_cell_angle_alpha   89.99634885
_cell_angle_beta   90.00477452
_cell_angle_gamma   90.00309557
_symmetry_Int_Tables_number   1
_chemical_formula_structural   Fe45Co19
_chemical_formula_sum   'Fe90 Co38'
_cell_volume   1487.64358798
_cell_formula_units_Z   2
loop_
 _symmetry_equiv_pos_site_id
 _symmetry_equiv_pos_as_xyz
  1  'x, y, z'
loop_
 _atom_site_type_symbol
 _atom_site_label
 _atom_site_symmetry_multiplicity
 _atom_site_fract_x
 _atom_site_fract_y
 _atom_site_fract_z
 _atom_site_occupancy
  Fe  Fe0  1  0.50099585  0.49836709  0.74889764  1
  Fe  Fe1  1  0.37423533  0.12510658  0.62536727  1
  Fe  Fe2  1  0.12497668  0.87730714  0.62419246  1
  Fe  Fe3  1  0.00007953  0.24721711  0.00059481  1
  Fe  Fe4  1  0.12343264  0.62701833  0.12469352  1
  Fe  Fe5  1  0.37519435  0.37366172  0.87583174  1
  Fe  Fe6  1  0.87548327  0.88159936  0.37574282  1
  Fe  Fe7  1  0.49897633  0.49739832  0.24836925  1
  Fe  Fe8  1  0.49518313  0.25138025  0.25040369  1
  Fe  Fe9  1  0.62990602  0.62644131  0.62703254  1
  Fe  Fe10  1  0.87448677  0.62581603  0.87411719  1
  Fe  Fe11  1  0.62700161  0.37369610  0.87641319  1
  Fe  Fe12  1  0.87503442  0.37292913  0.87453787  1
  Fe  Fe13  1  0.24782437  0.00098863  0.49564150  1
  Fe  Fe14  1  0.12046785  0.37016007  0.62277670  1
  Fe  Fe15  1  0.49986281  0.75121082  0.24827794  1
  Fe  Fe16  1  0.62821730  0.62436683  0.12647736  1
  Fe  Fe17  1  0.87567708  0.62546210  0.37515111  1
  Fe  Fe18  1  0.36953384  0.12098650  0.13032939  1
  Fe  Fe19  1  0.75193150  0.24678769  0.74834506  1
  Fe  Fe20  1  0.49966906  0.25037916  0.74933587  1
  Fe  Fe21  1  -0.00151694  0.49969504  0.24911460  1
  Fe  Fe22  1  0.12331864  0.62613517  0.62446367  1
  Fe  Fe23  1  0.25068494  -0.00088512  -0.00437139  1
  Fe  Fe24  1  0.75094087  0.75108111  -0.00102709  1
  Fe  Fe25  1  -0.00364191  0.49772243  0.74573901  1
  Fe  Fe26  1  0.62414073  0.12536925  0.87585154  1
  Fe  Fe27  1  0.24875301  0.49844045  0.74987579  1
  Fe  Fe28  1  0.37391677  0.62699279  0.12418951  1
  Fe  Fe29  1  0.37743401  0.87782476  0.37363778  1
  Fe  Fe30  1  0.49816288  0.24787263  0.49832216  1
  Fe  Fe31  1  0.00254861  0.00145922  0.00098279  1
  Fe  Fe32  1  0.75227151  0.24132498  0.50085773  1
  Fe  Fe33  1  0.12177135  0.37329042  0.87540072  1
  Fe  Fe34  1  0.62590887  0.87624948  0.12416397  1
  Fe  Fe35  1  0.49813392  0.24890482  0.00309228  1
  Fe  Fe36  1  0.62548884  0.37305418  0.37593006  1
  Fe  Fe37  1  0.37545594  0.87703742  0.62513116  1
  Fe  Fe38  1  0.87489534  0.12198806  0.12732405  1
  Fe  Fe39  1  0.12556406  0.87577294  0.12342700  1
  Fe  Fe40  1  -0.00187209  0.75002748  0.50165760  1
  Fe  Fe41  1  0.24829015  0.24888004  0.75169406  1
  Fe  Fe42  1  0.37428658  0.62479591  0.62542111  1
  Fe  Fe43  1  0.00296482  0.00749866  0.49636788  1
  Fe  Fe44  1  0.24909599  0.50041506  -0.00121885  1
  Fe  Fe45  1  0.75222676  0.49766750  0.00319360  1
  Fe  Fe46  1  0.12224551  0.37268960  0.37672847  1
  Fe  Fe47  1  0.24988439  0.49737938  0.24931514  1
  Fe  Fe48  1  0.87315719  0.88263684  0.62420822  1
  Fe  Fe49  1  0.24965259  0.00085679  0.75341112  1
  Fe  Fe50  1  0.62533046  0.87769510  0.37495507  1
  Fe  Fe51  1  0.75365672  0.49950653  0.50186546  1
  Fe  Fe52  1  0.87765582  0.37149505  0.37842335  1
  Fe  Fe53  1  -0.00239363  0.50052973  0.00272653  1
  Fe  Fe54  1  0.24840511  0.49817069  0.50099911  1
  Fe  Fe55  1  0.62661793  0.62647644  0.87253980  1
  Fe  Fe56  1  0.25067805  0.75159778  0.49902098  1
  Fe  Fe57  1  0.49957766  0.00094229  0.75131680  1
  Fe  Fe58  1  0.37558539  0.62333362  0.37590542  1
  Fe  Fe59  1  0.87587100  0.87811274  0.87519411  1
  Fe  Fe60  1  0.25237112  0.24954949  0.49682147  1
  Fe  Fe61  1  0.75325736  0.49657674  0.24890518  1
  Fe  Fe62  1  0.50108580  0.49988218  0.00104347  1
  Fe  Fe63  1  -0.00193190  0.75251892  0.74849551  1
  Fe  Fe64  1  0.00464854  0.00393406  0.75123420  1
  Fe  Fe65  1  0.62591876  0.12482043  0.12760783  1
  Fe  Fe66  1  0.87483957  0.87717715  0.12450436  1
  Fe  Fe67  1  0.49780799  -0.00023348  0.00156970  1
  Fe  Fe68  1  0.87523254  0.12323718  0.87430719  1
  Fe  Fe69  1  0.12377601  0.62588954  0.37579758  1
  Fe  Fe70  1  0.25013725  0.24885834  0.00020193  1
  Fe  Fe71  1  0.75104032  0.25026992  0.24921220  1
  Fe  Fe72  1  0.00165487  0.24563513  0.25001305  1
  Fe  Fe73  1  0.50279077  0.00393589  0.49760469  1
  Fe  Fe74  1  0.12444325  0.37298830  0.12448983  1
  Fe  Fe75  1  0.12098834  0.62658340  0.87394600  1
  Fe  Fe76  1  0.50071067  0.75007219  0.50113152  1
  Fe  Fe77  1  0.24964652  0.75318046  0.25221848  1
  Fe  Fe78  1  0.50011300  0.49868273  0.50277857  1
  Fe  Fe79  1  0.62784915  0.37212437  0.62431758  1
  Fe  Fe80  1  0.62265516  0.87456966  0.87539700  1
  Fe  Fe81  1  0.24967826  0.75233716  0.75028682  1
  Fe  Fe82  1  0.37747844  0.62831352  0.87397904  1
  Fe  Fe83  1  0.24953818  0.75199009  -0.00288687  1
  Fe  Fe84  1  0.75066551  0.24844218  0.00211910  1
  Fe  Fe85  1  0.62587441  0.62398092  0.37459315  1
  Fe  Fe86  1  0.75112760  0.75252400  0.25135913  1
  Fe  Fe87  1  0.75130018  0.75258451  0.50017062  1
  Fe  Fe88  1  -0.00063510  0.75217186  0.24916473  1
  Fe  Fe89  1  0.62719065  0.87812260  0.62554758  1
  Co  Co90  1  0.87717503  0.37142526  0.12520030  1
  Co  Co91  1  0.12925026  0.12418051  0.12521247  1
  Co  Co92  1  0.50126338  0.75043075  0.00368530  1
  Co  Co93  1  0.74674046  0.00187904  0.75255746  1
  Co  Co94  1  0.12817285  0.12601488  0.62438274  1
  Co  Co95  1  0.87547862  0.12004982  0.62832074  1
  Co  Co96  1  0.74862032  0.00120170  -0.00023732  1
  Co  Co97  1  0.37207669  0.87719662  0.12588359  1
  Co  Co98  1  0.37420623  0.12144278  0.37200209  1
  Co  Co99  1  0.62273164  0.12482773  0.62734429  1
  Co  Co100  1  0.37377658  0.37559371  0.12169866  1
  Co  Co101  1  0.50122770  0.75032025  0.74592679  1
  Co  Co102  1  0.12840236  0.12880106  0.37213510  1
  Co  Co103  1  0.75230622  0.75468109  0.75055002  1
  Co  Co104  1  0.37610946  0.12650506  0.87441232  1
  Co  Co105  1  0.24372225  -0.00458109  0.25532524  1
  Co  Co106  1  0.37830216  0.87230608  0.87408028  1
  Co  Co107  1  0.12303346  0.87495464  0.87467471  1
  Co  Co108  1  0.87329142  0.62710466  0.62516921  1
  Co  Co109  1  0.75240235  0.49704796  0.74843411  1
  Co  Co110  1  0.12475814  0.12636490  0.87659547  1
  Co  Co111  1  -0.00106413  0.75106551  0.00046418  1
  Co  Co112  1  0.87332669  0.12167227  0.36987065  1
  Co  Co113  1  0.87641408  0.37020203  0.62159445  1
  Co  Co114  1  0.62490573  0.37369175  0.12542668  1
  Co  Co115  1  0.50210270  -0.00089069  0.24827461  1
  Co  Co116  1  0.25203056  0.25409801  0.25148195  1
  Co  Co117  1  0.12120762  0.87225874  0.37762449  1
  Co  Co118  1  0.74681888  0.00599741  0.49854699  1
  Co  Co119  1  0.87377926  0.62773248  0.12612364  1
  Co  Co120  1  0.62459206  0.12678665  0.36991444  1
  Co  Co121  1  0.00426518  0.00054772  0.25010838  1
  Co  Co122  1  0.37397787  0.37326704  0.62620603  1
  Co  Co123  1  0.74821743  -0.00121708  0.24941789  1
  Co  Co124  1  -0.00091993  0.24734959  0.74966226  1
  Co  Co125  1  -0.00061229  0.50133370  0.50158508  1
  Co  Co126  1  -0.00267112  0.24105463  0.49960713  1
  Co  Co127  1  0.37601105  0.37826588  0.37644772  1
