# generated using pymatgen
data_Fe45Co19
_symmetry_space_group_name_H-M   'P 1'
_cell_length_a   11.41574968
_cell_length_b   11.41555301
_cell_length_c   11.41541870
_cell_angle_alpha   89.99819133
_cell_angle_beta   90.00331602
_cell_angle_gamma   89.99687234
_symmetry_Int_Tables_number   1
_chemical_formula_structural   Fe45Co19
_chemical_formula_sum   'Fe90 Co38'
_cell_volume   1487.62420488
_cell_formula_units_Z   2
loop_
 _symmetry_equiv_pos_site_id
 _symmetry_equiv_pos_as_xyz
  1  'x, y, z'
loop_
 _atom_site_type_symbol
 _atom_site_label
 _atom_site_symmetry_multiplicity
 _atom_site_fract_x
 _atom_site_fract_y
 _atom_site_fract_z
 _atom_site_occupancy
  Fe  Fe0  1  0.12360518  0.62212242  0.87472537  1
  Fe  Fe1  1  0.37238697  0.37461580  0.62510861  1
  Fe  Fe2  1  0.37307190  0.87571934  0.37566336  1
  Fe  Fe3  1  -0.00206496  0.49857777  0.24754624  1
  Fe  Fe4  1  0.62332479  0.62557080  0.87367622  1
  Fe  Fe5  1  0.75393223  0.00449515  0.25299391  1
  Fe  Fe6  1  0.75403321  0.00220647  0.75310872  1
  Fe  Fe7  1  -0.00106455  0.00080014  0.24934289  1
  Fe  Fe8  1  0.62582980  0.87603035  0.62779866  1
  Fe  Fe9  1  0.12404392  0.12440195  0.87450706  1
  Fe  Fe10  1  0.12806078  0.37306295  0.12825756  1
  Fe  Fe11  1  0.87680027  0.62400369  0.62185162  1
  Fe  Fe12  1  0.62910828  0.12633886  0.12662248  1
  Fe  Fe13  1  0.37301048  0.87505578  0.62430833  1
  Fe  Fe14  1  0.12220724  0.37833526  0.87280954  1
  Fe  Fe15  1  0.12657610  0.87483416  0.12708783  1
  Fe  Fe16  1  0.37548336  0.62466741  0.62480679  1
  Fe  Fe17  1  0.75037286  0.74986818  0.24942778  1
  Fe  Fe18  1  0.74756002  0.74999972  0.50129237  1
  Fe  Fe19  1  -0.00159376  0.25149228  0.75132614  1
  Fe  Fe20  1  0.62620324  0.87724650  0.12600136  1
  Fe  Fe21  1  0.12340510  0.62016941  0.37561656  1
  Fe  Fe22  1  0.24642174  0.74831152  0.49886847  1
  Fe  Fe23  1  0.24908075  0.00046798  -0.00063829  1
  Fe  Fe24  1  0.49827205  0.24863892  0.74931651  1
  Fe  Fe25  1  0.12444399  0.87413919  0.87376727  1
  Fe  Fe26  1  -0.00038471  0.75137550  0.25134633  1
  Fe  Fe27  1  0.37176387  0.37605245  0.37327611  1
  Fe  Fe28  1  0.87653023  0.87476388  0.37841181  1
  Fe  Fe29  1  0.87500922  0.37375649  0.37505660  1
  Fe  Fe30  1  0.62482434  0.87581111  0.87329867  1
  Fe  Fe31  1  0.74922928  0.49952186  0.50017329  1
  Fe  Fe32  1  0.37433507  0.87489122  0.12584231  1
  Fe  Fe33  1  0.87640281  0.87478094  0.62356834  1
  Fe  Fe34  1  0.50019895  0.24881454  0.49911241  1
  Fe  Fe35  1  -0.00381890  0.24927879  0.24757391  1
  Fe  Fe36  1  0.24559663  0.00219459  0.49796463  1
  Fe  Fe37  1  0.75158267  0.74882975  0.74984576  1
  Fe  Fe38  1  -0.00056520  0.74845072  0.74908200  1
  Fe  Fe39  1  -0.00052375  -0.00068858  0.75077529  1
  Fe  Fe40  1  0.62659281  0.12542228  0.62645872  1
  Fe  Fe41  1  0.00547253  0.25359936  0.49970625  1
  Fe  Fe42  1  0.87476723  0.62466233  0.12279197  1
  Fe  Fe43  1  0.24946552  0.49959691  0.00054732  1
  Fe  Fe44  1  0.50062648  0.24740710  -0.00139162  1
  Fe  Fe45  1  0.50152897  0.50041511  0.00113468  1
  Fe  Fe46  1  0.49664331  0.00139892  0.74922547  1
  Fe  Fe47  1  0.74870451  0.24772290  0.49817742  1
  Fe  Fe48  1  0.49817130  0.49999480  0.74959557  1
  Fe  Fe49  1  0.50079145  0.00297582  -0.00023299  1
  Fe  Fe50  1  0.24942156  0.74913031  0.25229395  1
  Fe  Fe51  1  0.74922185  0.75070637  0.00041460  1
  Fe  Fe52  1  0.24449221  0.25194982  0.49770677  1
  Fe  Fe53  1  0.12622406  0.12620936  0.12646895  1
  Fe  Fe54  1  0.12500720  0.87506757  0.62616795  1
  Fe  Fe55  1  0.49724109  0.00305105  0.25114973  1
  Fe  Fe56  1  0.50288868  0.74840638  0.49986969  1
  Fe  Fe57  1  0.12378100  0.61892349  0.62492398  1
  Fe  Fe58  1  0.50024659  0.50104932  0.49880668  1
  Fe  Fe59  1  0.62569277  0.37374212  0.37359380  1
  Fe  Fe60  1  0.25130021  0.74827445  0.75059588  1
  Fe  Fe61  1  0.50051493  0.50199897  0.25042905  1
  Fe  Fe62  1  0.37039484  0.12555988  0.62486265  1
  Fe  Fe63  1  0.24875438  0.25044219  0.75148577  1
  Fe  Fe64  1  0.62721036  0.37204283  0.12457453  1
  Fe  Fe65  1  0.50037728  0.75057608  -0.00033147  1
  Fe  Fe66  1  0.87558495  0.62469485  0.37641106  1
  Fe  Fe67  1  0.37470638  0.87588641  0.87434742  1
  Fe  Fe68  1  0.87713891  0.12556180  0.62258385  1
  Fe  Fe69  1  0.00306079  0.00003150  0.49946446  1
  Fe  Fe70  1  0.49826146  0.24809446  0.25183329  1
  Fe  Fe71  1  0.87437183  0.87870719  0.12108978  1
  Fe  Fe72  1  0.62543023  0.37463426  0.62603918  1
  Fe  Fe73  1  0.75228722  0.49904824  0.75113948  1
  Fe  Fe74  1  0.50110660  0.74861488  0.25226590  1
  Fe  Fe75  1  0.62571662  0.37355854  0.87490050  1
  Fe  Fe76  1  0.37489634  0.37424436  0.87627864  1
  Fe  Fe77  1  0.75422795  0.24874350  0.75497510  1
  Fe  Fe78  1  0.37612369  0.62606543  0.12489647  1
  Fe  Fe79  1  0.12429323  0.62618446  0.12532825  1
  Fe  Fe80  1  0.50132766  0.00237490  0.49989227  1
  Fe  Fe81  1  0.87546908  0.37386395  0.62474622  1
  Fe  Fe82  1  0.87718975  0.62232094  0.87847795  1
  Fe  Fe83  1  0.87134585  0.37277003  0.11768867  1
  Fe  Fe84  1  0.37320000  0.37346739  0.12500335  1
  Fe  Fe85  1  0.62616966  0.87730890  0.37446256  1
  Fe  Fe86  1  0.37103596  0.12723423  0.12370415  1
  Fe  Fe87  1  0.00012542  0.75206211  0.00070170  1
  Fe  Fe88  1  0.25047922  0.74930073  -0.00117211  1
  Fe  Fe89  1  0.74932375  0.49975872  0.24751869  1
  Co  Co90  1  0.62387528  0.62680021  0.12568082  1
  Co  Co91  1  0.12540141  0.37729659  0.36895352  1
  Co  Co92  1  0.62536159  0.12610632  0.37387735  1
  Co  Co93  1  0.74857305  0.24658862  -0.00479315  1
  Co  Co94  1  0.87625163  0.87454633  0.87679382  1
  Co  Co95  1  -0.00016623  0.49504227  0.49996688  1
  Co  Co96  1  0.49789634  0.75071202  0.74920324  1
  Co  Co97  1  0.24989617  0.49709705  0.50026220  1
  Co  Co98  1  0.12251838  0.12635975  0.37067507  1
  Co  Co99  1  0.74974717  0.00100969  0.50011847  1
  Co  Co100  1  0.87669526  0.37740105  0.88046588  1
  Co  Co101  1  0.12536549  0.37805890  0.62949000  1
  Co  Co102  1  0.75426482  0.24823408  0.25052473  1
  Co  Co103  1  0.62272416  0.12534455  0.87098271  1
  Co  Co104  1  0.00340912  0.49840354  0.00423017  1
  Co  Co105  1  0.37593419  0.62447339  0.87673074  1
  Co  Co106  1  0.25153602  0.00039497  0.25003493  1
  Co  Co107  1  0.74731653  0.00206480  -0.00389340  1
  Co  Co108  1  0.00481672  -0.00230359  0.00097000  1
  Co  Co109  1  0.62411405  0.62295972  0.62651439  1
  Co  Co110  1  0.00351705  0.25193341  0.00081414  1
  Co  Co111  1  0.37338514  0.12523662  0.87469751  1
  Co  Co112  1  0.24785837  0.25130023  -0.00296710  1
  Co  Co113  1  0.74640408  0.50120605  0.00010858  1
  Co  Co114  1  0.00291014  0.74971589  0.50034256  1
  Co  Co115  1  0.87499439  0.12367200  0.11891987  1
  Co  Co116  1  -0.00486737  0.49934349  0.74805581  1
  Co  Co117  1  0.24960604  -0.00065799  0.75082628  1
  Co  Co118  1  0.25085550  0.50251987  0.24731256  1
  Co  Co119  1  0.37340953  0.62521730  0.37567641  1
  Co  Co120  1  0.12483312  0.87600657  0.37315760  1
  Co  Co121  1  0.25205424  0.24838994  0.25277850  1
  Co  Co122  1  0.62776994  0.62403390  0.37412776  1
  Co  Co123  1  0.88078898  0.12370398  0.88111604  1
  Co  Co124  1  0.12476876  0.12561277  0.62755120  1
  Co  Co125  1  0.37307192  0.12509370  0.37786023  1
  Co  Co126  1  0.87895261  0.12663773  0.37926866  1
  Co  Co127  1  0.25305924  0.50058145  0.75144208  1
