# generated using pymatgen
data_Fe45Co19
_symmetry_space_group_name_H-M   'P 1'
_cell_length_a   11.41511137
_cell_length_b   11.41534652
_cell_length_c   11.41516544
_cell_angle_alpha   90.00661919
_cell_angle_beta   90.00039546
_cell_angle_gamma   89.99889930
_symmetry_Int_Tables_number   1
_chemical_formula_structural   Fe45Co19
_chemical_formula_sum   'Fe90 Co38'
_cell_volume   1487.48111180
_cell_formula_units_Z   2
loop_
 _symmetry_equiv_pos_site_id
 _symmetry_equiv_pos_as_xyz
  1  'x, y, z'
loop_
 _atom_site_type_symbol
 _atom_site_label
 _atom_site_symmetry_multiplicity
 _atom_site_fract_x
 _atom_site_fract_y
 _atom_site_fract_z
 _atom_site_occupancy
  Fe  Fe0  1  0.12686794  0.12686276  0.87268575  1
  Fe  Fe1  1  0.37352552  0.12203689  0.12603496  1
  Fe  Fe2  1  0.49998135  0.74774203  0.00275771  1
  Fe  Fe3  1  0.24942192  -0.00356352  0.25307001  1
  Fe  Fe4  1  -0.00211900  -0.00209527  0.75294939  1
  Fe  Fe5  1  0.37319658  0.87510506  0.62287602  1
  Fe  Fe6  1  0.62583009  0.12814362  0.87565982  1
  Fe  Fe7  1  0.87508261  0.12528049  0.12370224  1
  Fe  Fe8  1  0.62352975  0.62836482  0.37328509  1
  Fe  Fe9  1  0.62346533  0.37552357  0.37509337  1
  Fe  Fe10  1  0.75287606  -0.00278170  0.24800723  1
  Fe  Fe11  1  0.75035663  0.24908671  0.49782078  1
  Fe  Fe12  1  0.37422083  0.12571961  0.87368750  1
  Fe  Fe13  1  0.49767145  0.50098329  0.25147381  1
  Fe  Fe14  1  0.62621760  0.62380837  0.12693733  1
  Fe  Fe15  1  0.12488096  0.62450547  0.86841806  1
  Fe  Fe16  1  0.37223528  0.37557406  0.87608941  1
  Fe  Fe17  1  0.12730967  0.37233919  0.37513477  1
  Fe  Fe18  1  0.12365797  0.12398776  0.62689996  1
  Fe  Fe19  1  0.75211532  -0.00178542  0.75233221  1
  Fe  Fe20  1  0.49474334  0.25138998  0.25350342  1
  Fe  Fe21  1  0.75079989  0.74981235  0.50043802  1
  Fe  Fe22  1  0.62508536  0.87308839  0.12404804  1
  Fe  Fe23  1  0.62345071  0.87123115  0.37370382  1
  Fe  Fe24  1  0.49808316  0.49832329  0.74865090  1
  Fe  Fe25  1  0.37321079  0.62494825  0.87524619  1
  Fe  Fe26  1  0.24945801  -0.00195023  0.75148536  1
  Fe  Fe27  1  0.49860728  0.25112108  0.00035808  1
  Fe  Fe28  1  -0.00071634  0.25229181  0.25133661  1
  Fe  Fe29  1  0.25066181  0.49894072  0.74705017  1
  Fe  Fe30  1  0.87860422  0.87220773  0.37653489  1
  Fe  Fe31  1  0.37689078  0.12495266  0.62319973  1
  Fe  Fe32  1  0.75218388  0.49975804  0.75074855  1
  Fe  Fe33  1  -0.00029719  -0.00369650  0.24941879  1
  Fe  Fe34  1  0.25198154  0.25106663  0.74632180  1
  Fe  Fe35  1  0.24850729  0.24998510  0.00209613  1
  Fe  Fe36  1  0.00149906  -0.00066150  0.49885200  1
  Fe  Fe37  1  0.24969621  0.75562476  0.24764643  1
  Fe  Fe38  1  0.12570870  0.12357726  0.12761316  1
  Fe  Fe39  1  0.75360169  0.25259011  0.25035852  1
  Fe  Fe40  1  0.62411593  0.12554512  0.62612846  1
  Fe  Fe41  1  0.62539803  0.37422955  0.87561352  1
  Fe  Fe42  1  0.74955729  -0.00095452  0.49929452  1
  Fe  Fe43  1  0.49775498  0.75086762  0.74799973  1
  Fe  Fe44  1  0.74968972  0.50127041  0.49821520  1
  Fe  Fe45  1  0.24742886  0.74879887  0.49998860  1
  Fe  Fe46  1  0.49873367  0.50022753  0.00078734  1
  Fe  Fe47  1  0.24422816  0.50028900  0.00199463  1
  Fe  Fe48  1  0.37668155  0.62757079  0.37537679  1
  Fe  Fe49  1  0.62533216  0.12648989  0.12734270  1
  Fe  Fe50  1  0.24879276  0.49873111  0.25242489  1
  Fe  Fe51  1  0.75398074  0.75112806  0.75233344  1
  Fe  Fe52  1  0.87942243  0.37990458  0.12280317  1
  Fe  Fe53  1  0.87581085  0.37757306  0.62271419  1
  Fe  Fe54  1  0.62294732  0.62461016  0.87397151  1
  Fe  Fe55  1  0.62361323  0.37426507  0.62413612  1
  Fe  Fe56  1  0.87715912  0.87433579  0.11522294  1
  Fe  Fe57  1  0.62648647  0.62616532  0.62646865  1
  Fe  Fe58  1  -0.00119396  0.25314876  0.75121638  1
  Fe  Fe59  1  0.50092491  0.00052772  0.00034056  1
  Fe  Fe60  1  0.75179602  0.25134973  0.74999587  1
  Fe  Fe61  1  0.37191281  0.62536845  0.12530444  1
  Fe  Fe62  1  0.75041298  0.50075843  -0.00036181  1
  Fe  Fe63  1  0.12213923  0.63097668  0.37011270  1
  Fe  Fe64  1  0.87816800  0.62656938  0.37224702  1
  Fe  Fe65  1  0.12151659  0.87394364  0.87774757  1
  Fe  Fe66  1  0.37471014  0.37529617  0.61658197  1
  Fe  Fe67  1  0.12378163  0.87258703  0.62535094  1
  Fe  Fe68  1  0.87580101  0.12419085  0.62406090  1
  Fe  Fe69  1  0.37437229  0.87446559  0.87856594  1
  Fe  Fe70  1  0.24640718  0.00118027  0.49677558  1
  Fe  Fe71  1  0.87283413  0.12576933  0.87765804  1
  Fe  Fe72  1  0.00333123  0.50521203  0.50033901  1
  Fe  Fe73  1  0.12555437  0.37689324  0.62393374  1
  Fe  Fe74  1  0.49700307  -0.00448665  0.25051030  1
  Fe  Fe75  1  0.50031347  -0.00160837  0.75004177  1
  Fe  Fe76  1  0.75262987  0.49865781  0.25203846  1
  Fe  Fe77  1  0.62436765  0.37568539  0.12576872  1
  Fe  Fe78  1  0.00152153  0.24864387  0.49934444  1
  Fe  Fe79  1  0.87545445  0.87432359  0.62434926  1
  Fe  Fe80  1  0.00223112  0.25262738  -0.00186487  1
  Fe  Fe81  1  0.62568790  0.12372465  0.37209343  1
  Fe  Fe82  1  0.87629207  0.12410908  0.37487308  1
  Fe  Fe83  1  0.62671034  0.87348444  0.87642040  1
  Fe  Fe84  1  0.75409414  0.74991702  0.24613765  1
  Fe  Fe85  1  0.37184442  0.37649295  0.12643021  1
  Fe  Fe86  1  0.37317046  0.62495586  0.62404288  1
  Fe  Fe87  1  0.50231003  -0.00263836  0.49931360  1
  Fe  Fe88  1  0.87889750  0.62459347  0.87680607  1
  Fe  Fe89  1  0.24543511  0.74914527  0.00156948  1
  Co  Co90  1  0.50081354  0.74912492  0.50417465  1
  Co  Co91  1  0.12450717  0.87941119  0.12123832  1
  Co  Co92  1  -0.00137420  0.75480403  0.24311391  1
  Co  Co93  1  0.12467892  0.37419227  0.12784888  1
  Co  Co94  1  0.24486242  0.50592199  0.49760585  1
  Co  Co95  1  0.12402589  0.62255639  0.13152617  1
  Co  Co96  1  0.12133382  0.87187136  0.37597779  1
  Co  Co97  1  0.50217323  0.50295239  0.49904970  1
  Co  Co98  1  0.37468993  0.12234066  0.37637444  1
  Co  Co99  1  0.00686872  0.50147803  -0.00204973  1
  Co  Co100  1  0.87542150  0.37736841  0.87686711  1
  Co  Co101  1  0.24906671  0.00173253  -0.00267936  1
  Co  Co102  1  0.62803684  0.87395395  0.62663543  1
  Co  Co103  1  0.75087724  0.25169140  0.00325609  1
  Co  Co104  1  -0.00298872  0.75105042  0.74913192  1
  Co  Co105  1  0.12244188  0.12434670  0.37107146  1
  Co  Co106  1  0.50105483  0.24905051  0.49659012  1
  Co  Co107  1  0.87779891  0.61928925  0.12608609  1
  Co  Co108  1  0.37271944  0.87556704  0.12128175  1
  Co  Co109  1  0.37598127  0.87227822  0.37809484  1
  Co  Co110  1  0.25250429  0.24915929  0.25140152  1
  Co  Co111  1  0.12774094  0.37578488  0.87164024  1
  Co  Co112  1  0.24777977  0.24484156  0.49935526  1
  Co  Co113  1  0.87338166  0.62396849  0.62494627  1
  Co  Co114  1  0.74979717  0.74549250  0.00075307  1
  Co  Co115  1  0.37190512  0.37699584  0.37948201  1
  Co  Co116  1  0.87776462  0.37623010  0.37867583  1
  Co  Co117  1  -0.00074883  0.49942627  0.74850531  1
  Co  Co118  1  0.00041905  0.74642692  0.50384517  1
  Co  Co119  1  0.25133533  0.75327445  0.75115089  1
  Co  Co120  1  0.74745508  0.00182010  0.00101757  1
  Co  Co121  1  0.49784994  0.74976712  0.24582866  1
  Co  Co122  1  0.87716183  0.87305181  0.88210612  1
  Co  Co123  1  0.00220213  0.49766237  0.25360859  1
  Co  Co124  1  0.49805677  0.25259164  0.74988951  1
  Co  Co125  1  0.00155682  0.00530660  -0.00202465  1
  Co  Co126  1  0.12635569  0.62736452  0.63121916  1
  Co  Co127  1  0.00484430  0.74350292  0.00331792  1
