# generated using pymatgen
data_Fe45Co19
_symmetry_space_group_name_H-M   'P 1'
_cell_length_a   11.41552035
_cell_length_b   11.41592591
_cell_length_c   11.41593666
_cell_angle_alpha   90.00047767
_cell_angle_beta   89.98719346
_cell_angle_gamma   90.00430454
_symmetry_Int_Tables_number   1
_chemical_formula_structural   Fe45Co19
_chemical_formula_sum   'Fe90 Co38'
_cell_volume   1487.71037725
_cell_formula_units_Z   2
loop_
 _symmetry_equiv_pos_site_id
 _symmetry_equiv_pos_as_xyz
  1  'x, y, z'
loop_
 _atom_site_type_symbol
 _atom_site_label
 _atom_site_symmetry_multiplicity
 _atom_site_fract_x
 _atom_site_fract_y
 _atom_site_fract_z
 _atom_site_occupancy
  Fe  Fe0  1  0.50163211  0.25262754  0.74685081  1
  Fe  Fe1  1  0.12098291  0.87162693  0.87908667  1
  Fe  Fe2  1  0.87238449  0.37611590  0.62451231  1
  Fe  Fe3  1  0.24849612  0.24927226  0.75148880  1
  Fe  Fe4  1  0.25222782  0.25354630  0.24829706  1
  Fe  Fe5  1  0.12845842  0.37680948  0.12206722  1
  Fe  Fe6  1  0.12772270  0.37437591  0.62352002  1
  Fe  Fe7  1  0.24834181  -0.00100215  0.75295902  1
  Fe  Fe8  1  -0.00108609  0.00176596  0.49816277  1
  Fe  Fe9  1  0.87253697  0.12422272  0.62608197  1
  Fe  Fe10  1  0.24812015  0.75191460  0.74968395  1
  Fe  Fe11  1  0.12574205  0.87800925  0.62282910  1
  Fe  Fe12  1  0.62784084  0.87922298  0.62531441  1
  Fe  Fe13  1  -0.00253964  -0.00058334  0.75294254  1
  Fe  Fe14  1  0.74815597  0.25256041  0.74937707  1
  Fe  Fe15  1  0.12686105  0.12409408  0.62325339  1
  Fe  Fe16  1  0.74885507  0.75034321  0.75136846  1
  Fe  Fe17  1  0.37708075  0.62493164  0.37601822  1
  Fe  Fe18  1  0.62364178  0.87422752  0.37618846  1
  Fe  Fe19  1  0.25184041  0.49942622  0.75218980  1
  Fe  Fe20  1  0.00333825  0.50446173  -0.00040583  1
  Fe  Fe21  1  0.49878968  0.24816143  0.00281552  1
  Fe  Fe22  1  0.74861339  0.25155380  0.24919991  1
  Fe  Fe23  1  0.50107601  0.74822308  0.50319968  1
  Fe  Fe24  1  0.12453286  0.87697690  0.12128393  1
  Fe  Fe25  1  0.12463944  0.87439791  0.37660045  1
  Fe  Fe26  1  0.62502540  0.61910858  0.63043559  1
  Fe  Fe27  1  0.37690901  0.12973606  0.37517068  1
  Fe  Fe28  1  0.74681808  0.49904511  0.25211103  1
  Fe  Fe29  1  0.37376040  0.87679549  0.62520219  1
  Fe  Fe30  1  0.37465913  0.62764511  0.87350333  1
  Fe  Fe31  1  0.25267888  0.49604858  0.25178778  1
  Fe  Fe32  1  0.50093686  0.75199273  0.74967901  1
  Fe  Fe33  1  0.87877960  0.62880785  0.87313411  1
  Fe  Fe34  1  0.62411193  0.62455089  0.12287768  1
  Fe  Fe35  1  0.25281903  0.49670778  0.49835672  1
  Fe  Fe36  1  0.87527248  0.62641034  0.37318929  1
  Fe  Fe37  1  0.25135592  0.75086126  0.24793285  1
  Fe  Fe38  1  0.87323958  0.62295045  0.62638343  1
  Fe  Fe39  1  0.12398047  0.12552755  0.87723308  1
  Fe  Fe40  1  0.37154431  0.12525234  0.62488658  1
  Fe  Fe41  1  0.50090744  -0.00037784  0.75160110  1
  Fe  Fe42  1  0.87881333  0.37182660  0.37505142  1
  Fe  Fe43  1  0.49850729  0.00104587  0.49964765  1
  Fe  Fe44  1  0.61973318  0.37272005  0.37700466  1
  Fe  Fe45  1  0.00053665  0.74879870  0.50260326  1
  Fe  Fe46  1  0.62504721  0.12089054  0.12438227  1
  Fe  Fe47  1  0.12587783  0.37367418  0.87818351  1
  Fe  Fe48  1  0.37631037  0.87423235  0.37502177  1
  Fe  Fe49  1  0.87678868  0.37221683  0.87632569  1
  Fe  Fe50  1  0.50020213  0.49944821  -0.00387616  1
  Fe  Fe51  1  0.75533376  0.00123018  -0.00641116  1
  Fe  Fe52  1  0.62327655  0.87957302  0.12299814  1
  Fe  Fe53  1  0.37323088  0.37169471  0.87798809  1
  Fe  Fe54  1  0.62262452  0.12809415  0.37588751  1
  Fe  Fe55  1  0.00048091  0.49960547  0.75035959  1
  Fe  Fe56  1  0.74716667  0.74753766  0.50037122  1
  Fe  Fe57  1  0.12732086  0.62332587  0.62576676  1
  Fe  Fe58  1  0.74928894  0.49968985  0.49670365  1
  Fe  Fe59  1  0.87213333  0.87721379  0.62535957  1
  Fe  Fe60  1  0.37395116  0.62390212  0.12375827  1
  Fe  Fe61  1  0.37535498  0.12015974  0.12563199  1
  Fe  Fe62  1  0.49967638  0.49832314  0.24801602  1
  Fe  Fe63  1  0.00152351  0.49845592  0.24930147  1
  Fe  Fe64  1  0.87793835  0.12839824  0.37175632  1
  Fe  Fe65  1  0.00147332  0.25069289  0.74724075  1
  Fe  Fe66  1  0.87737263  0.87802544  0.12330243  1
  Fe  Fe67  1  0.74984510  -0.00065913  0.25308030  1
  Fe  Fe68  1  0.12453205  0.12206892  0.12469565  1
  Fe  Fe69  1  0.62490506  0.12540023  0.87518110  1
  Fe  Fe70  1  0.37467147  0.12467613  0.87449816  1
  Fe  Fe71  1  0.00108529  0.49966753  0.49986927  1
  Fe  Fe72  1  0.87327629  0.62296703  0.12719643  1
  Fe  Fe73  1  0.74712513  0.74943347  0.24915662  1
  Fe  Fe74  1  0.00070520  0.74990320  0.24731432  1
  Fe  Fe75  1  0.74845788  0.50187074  -0.00535351  1
  Fe  Fe76  1  0.12330231  0.12945240  0.37462957  1
  Fe  Fe77  1  0.12563936  0.62428113  0.37360455  1
  Fe  Fe78  1  0.24976683  -0.00091857  0.25247562  1
  Fe  Fe79  1  0.74996880  0.74991616  -0.00031649  1
  Fe  Fe80  1  0.25055537  0.74974342  0.50090563  1
  Fe  Fe81  1  0.62471420  0.37555066  0.12208035  1
  Fe  Fe82  1  0.49690866  0.75526827  -0.00054406  1
  Fe  Fe83  1  0.50095447  0.75072284  0.24825847  1
  Fe  Fe84  1  -0.00113559  0.24719080  0.00395235  1
  Fe  Fe85  1  0.75114541  0.24828748  0.00126388  1
  Fe  Fe86  1  0.62901878  0.12290900  0.62343568  1
  Fe  Fe87  1  0.49676634  0.49839996  0.50535438  1
  Fe  Fe88  1  0.87542721  0.87271788  0.37564033  1
  Fe  Fe89  1  0.87392393  0.37657132  0.12355191  1
  Co  Co90  1  0.00135825  0.25270891  0.24360175  1
  Co  Co91  1  0.49667446  0.49593667  0.75226136  1
  Co  Co92  1  0.00148440  -0.00167697  0.25161231  1
  Co  Co93  1  0.50055587  0.25017141  0.50734656  1
  Co  Co94  1  0.00194791  0.74395421  0.00572062  1
  Co  Co95  1  0.62166713  0.62784541  0.87429642  1
  Co  Co96  1  0.62143917  0.62383119  0.37511079  1
  Co  Co97  1  0.50040574  0.00041488  0.25306062  1
  Co  Co98  1  0.12444870  0.62817927  0.87063289  1
  Co  Co99  1  0.25138309  0.00135905  0.49688480  1
  Co  Co100  1  0.62545494  0.87583905  0.87579725  1
  Co  Co101  1  0.37089749  0.37149691  0.62754435  1
  Co  Co102  1  0.62403008  0.37213597  0.87581050  1
  Co  Co103  1  0.25058636  0.74917216  0.00109660  1
  Co  Co104  1  0.37494356  0.87886691  0.12688148  1
  Co  Co105  1  0.75027915  0.25069285  0.49900000  1
  Co  Co106  1  0.12894866  0.62319824  0.12953558  1
  Co  Co107  1  0.25017226  0.25167605  0.49837523  1
  Co  Co108  1  0.49717973  -0.00083494  -0.00373483  1
  Co  Co109  1  0.62853597  0.37948543  0.62623771  1
  Co  Co110  1  0.25101408  0.24573848  0.00197405  1
  Co  Co111  1  0.75145250  -0.00033236  0.75606438  1
  Co  Co112  1  0.38063535  0.37194849  0.37538928  1
  Co  Co113  1  -0.00001298  0.24922965  0.50424868  1
  Co  Co114  1  0.87909492  0.86922857  0.87590616  1
  Co  Co115  1  0.75128890  0.49945500  0.75799067  1
  Co  Co116  1  0.37395478  0.62631500  0.62746299  1
  Co  Co117  1  0.12264193  0.37242971  0.37553215  1
  Co  Co118  1  0.87552254  0.13123336  0.87107302  1
  Co  Co119  1  0.25155895  -0.00114419  -0.00208463  1
  Co  Co120  1  0.24842987  0.50482199  -0.00296192  1
  Co  Co121  1  0.37311867  0.87533996  0.87249630  1
  Co  Co122  1  0.49992853  0.25013230  0.24364369  1
  Co  Co123  1  -0.00429037  0.00449074  -0.00332220  1
  Co  Co124  1  0.87383332  0.12251795  0.12971135  1
  Co  Co125  1  0.00117834  0.75095068  0.74378148  1
  Co  Co126  1  0.37436921  0.37730892  0.12024921  1
  Co  Co127  1  0.75128171  0.00134218  0.49509802  1
