# generated using pymatgen
data_Fe45Co19
_symmetry_space_group_name_H-M   'P 1'
_cell_length_a   11.41531395
_cell_length_b   11.41645495
_cell_length_c   11.41688126
_cell_angle_alpha   90.00332494
_cell_angle_beta   90.01014840
_cell_angle_gamma   89.99264229
_symmetry_Int_Tables_number   1
_chemical_formula_structural   Fe45Co19
_chemical_formula_sum   'Fe90 Co38'
_cell_volume   1487.87552705
_cell_formula_units_Z   2
loop_
 _symmetry_equiv_pos_site_id
 _symmetry_equiv_pos_as_xyz
  1  'x, y, z'
loop_
 _atom_site_type_symbol
 _atom_site_label
 _atom_site_symmetry_multiplicity
 _atom_site_fract_x
 _atom_site_fract_y
 _atom_site_fract_z
 _atom_site_occupancy
  Fe  Fe0  1  0.37313028  0.37395011  0.62283744  1
  Fe  Fe1  1  0.74824183  0.75155519  0.75026833  1
  Fe  Fe2  1  0.37161027  0.62598306  0.62367238  1
  Fe  Fe3  1  0.24873700  0.50091701  0.49789597  1
  Fe  Fe4  1  0.49873984  -0.00028408  0.75181511  1
  Fe  Fe5  1  0.49904412  0.25085519  0.74948734  1
  Fe  Fe6  1  0.62733981  0.62604863  0.37415121  1
  Fe  Fe7  1  0.62465973  0.37629598  0.87555127  1
  Fe  Fe8  1  0.24966021  0.75169818  0.25021376  1
  Fe  Fe9  1  0.37414227  0.87437566  0.87594013  1
  Fe  Fe10  1  0.74807139  0.75493304  0.50263295  1
  Fe  Fe11  1  0.62695775  0.37705700  0.37438303  1
  Fe  Fe12  1  0.37420499  0.37384658  0.37400248  1
  Fe  Fe13  1  0.12012192  0.12310376  0.12501030  1
  Fe  Fe14  1  0.37542850  0.62341288  0.87780857  1
  Fe  Fe15  1  0.87546227  0.37371638  0.37633956  1
  Fe  Fe16  1  0.74803339  -0.00389781  0.75110235  1
  Fe  Fe17  1  0.49751057  0.50210180  0.24551987  1
  Fe  Fe18  1  0.12239517  0.37516809  0.37272332  1
  Fe  Fe19  1  -0.00171478  0.50445477  0.49613617  1
  Fe  Fe20  1  0.37441768  0.87516183  0.12325766  1
  Fe  Fe21  1  0.62616292  0.37679231  0.12487464  1
  Fe  Fe22  1  0.37366592  0.12639082  0.87683651  1
  Fe  Fe23  1  0.74823335  0.74973014  -0.00210853  1
  Fe  Fe24  1  0.50047852  -0.00228100  0.49999638  1
  Fe  Fe25  1  0.24650197  0.24955745  0.00147931  1
  Fe  Fe26  1  0.62809223  0.12116063  0.37396094  1
  Fe  Fe27  1  0.50322599  0.74570630  0.00170206  1
  Fe  Fe28  1  0.24695060  0.75123969  -0.00114673  1
  Fe  Fe29  1  0.87770662  0.87797679  0.12197407  1
  Fe  Fe30  1  0.25139288  0.49981002  0.24746346  1
  Fe  Fe31  1  0.12380837  0.12338643  0.37553531  1
  Fe  Fe32  1  0.50191161  0.49956360  0.50081957  1
  Fe  Fe33  1  0.37481050  0.12482270  0.12442907  1
  Fe  Fe34  1  0.50398173  0.00225219  -0.00133026  1
  Fe  Fe35  1  0.37429240  0.62568144  0.37377834  1
  Fe  Fe36  1  0.74904305  0.24995588  0.50187663  1
  Fe  Fe37  1  0.24926615  0.25020587  0.74986096  1
  Fe  Fe38  1  0.00023476  0.24932215  0.75052448  1
  Fe  Fe39  1  0.50126043  0.74925882  0.24737877  1
  Fe  Fe40  1  0.87673332  0.87394009  0.87427303  1
  Fe  Fe41  1  0.25097296  0.49885925  0.00360511  1
  Fe  Fe42  1  0.36877912  0.87436083  0.62587924  1
  Fe  Fe43  1  0.11877384  0.37571352  0.12676806  1
  Fe  Fe44  1  0.50390354  0.24886117  0.00095419  1
  Fe  Fe45  1  0.75492526  0.50230227  0.25207552  1
  Fe  Fe46  1  0.87479317  0.87773862  0.37770400  1
  Fe  Fe47  1  0.75103936  0.75322692  0.24966469  1
  Fe  Fe48  1  0.12328035  0.37697146  0.62416881  1
  Fe  Fe49  1  0.87639567  0.62664589  0.12448468  1
  Fe  Fe50  1  0.50188275  0.25132737  0.50001874  1
  Fe  Fe51  1  0.75117501  0.50066521  0.74917115  1
  Fe  Fe52  1  0.50077848  -0.00028235  0.24904964  1
  Fe  Fe53  1  0.62529868  0.12413797  0.62700502  1
  Fe  Fe54  1  0.75242117  0.24776920  0.24756138  1
  Fe  Fe55  1  0.24963251  0.50156893  0.75072213  1
  Fe  Fe56  1  0.87461826  0.12412553  0.87752530  1
  Fe  Fe57  1  0.75103936  0.50314582  -0.00230912  1
  Fe  Fe58  1  0.37566394  0.37496246  0.87835399  1
  Fe  Fe59  1  0.75112475  0.25189541  0.75015231  1
  Fe  Fe60  1  0.87623401  0.37612358  0.62321797  1
  Fe  Fe61  1  0.12361053  0.62534053  0.12663205  1
  Fe  Fe62  1  0.62549737  0.62507975  0.62543003  1
  Fe  Fe63  1  0.50136928  0.24922331  0.24906737  1
  Fe  Fe64  1  0.12454546  0.87633459  0.37593679  1
  Fe  Fe65  1  0.37214927  0.12515899  0.62271862  1
  Fe  Fe66  1  0.37553060  0.87411290  0.37385725  1
  Fe  Fe67  1  0.24879447  -0.00125634  0.24902328  1
  Fe  Fe68  1  0.87518331  0.62688218  0.62437150  1
  Fe  Fe69  1  0.24510798  -0.00088836  -0.00132780  1
  Fe  Fe70  1  0.00592430  0.74751010  0.74941733  1
  Fe  Fe71  1  0.12822948  0.12234900  0.62430194  1
  Fe  Fe72  1  0.49819393  0.74963069  0.75059881  1
  Fe  Fe73  1  0.87398141  0.12179931  0.62463136  1
  Fe  Fe74  1  0.87668323  0.12113921  0.12157932  1
  Fe  Fe75  1  0.50009314  0.75150337  0.49985957  1
  Fe  Fe76  1  0.12316827  0.37553392  0.87623412  1
  Fe  Fe77  1  -0.00050235  0.50349544  0.75252313  1
  Fe  Fe78  1  -0.00074603  0.75054640  0.25159358  1
  Fe  Fe79  1  0.00308215  -0.00046921  0.75042434  1
  Fe  Fe80  1  0.87751983  0.37530755  0.12382560  1
  Fe  Fe81  1  0.00263271  0.74985943  -0.00259652  1
  Fe  Fe82  1  0.00411239  0.75141478  0.50215862  1
  Fe  Fe83  1  0.24857876  0.24937499  0.24921845  1
  Fe  Fe84  1  0.62586020  0.87667026  0.12461564  1
  Fe  Fe85  1  0.37397792  0.12619319  0.37539980  1
  Fe  Fe86  1  0.00045821  0.24760491  0.50028961  1
  Fe  Fe87  1  0.87393566  0.12048609  0.37717368  1
  Fe  Fe88  1  0.49965081  0.49919121  0.74877279  1
  Fe  Fe89  1  0.87636772  0.37436424  0.87687841  1
  Co  Co90  1  -0.00093116  -0.00129552  0.25105014  1
  Co  Co91  1  0.24895056  0.74968046  0.49805400  1
  Co  Co92  1  0.62139117  0.87518481  0.62789260  1
  Co  Co93  1  0.00327324  -0.00265959  -0.00377753  1
  Co  Co94  1  0.75256350  -0.00190512  0.24778482  1
  Co  Co95  1  -0.00082885  0.24963877  -0.00085794  1
  Co  Co96  1  0.62643357  0.12339982  0.12663243  1
  Co  Co97  1  0.62286831  0.87315798  0.87528073  1
  Co  Co98  1  0.74966325  0.24961889  0.00128691  1
  Co  Co99  1  0.12609630  0.87433845  0.87017665  1
  Co  Co100  1  0.49968626  0.50251988  0.00416673  1
  Co  Co101  1  0.13090392  0.87644097  0.62739890  1
  Co  Co102  1  0.62983925  0.62425806  0.12761021  1
  Co  Co103  1  0.62518718  0.87574365  0.37258893  1
  Co  Co104  1  0.12396757  0.12722585  0.87429770  1
  Co  Co105  1  -0.00465994  0.50318059  0.25255310  1
  Co  Co106  1  0.74832501  -0.00125610  -0.00215707  1
  Co  Co107  1  -0.00317515  0.24708140  0.25055464  1
  Co  Co108  1  0.12637982  0.62199477  0.87833317  1
  Co  Co109  1  0.12313150  0.87383432  0.12622080  1
  Co  Co110  1  0.25144608  0.00184068  0.75398358  1
  Co  Co111  1  0.12571883  0.62538786  0.37201236  1
  Co  Co112  1  0.62399532  0.62374407  0.87271355  1
  Co  Co113  1  0.12622710  0.62336608  0.62347070  1
  Co  Co114  1  0.00093439  -0.00138816  0.50287090  1
  Co  Co115  1  0.74850873  -0.00408048  0.50396689  1
  Co  Co116  1  0.25157029  -0.00144165  0.49671482  1
  Co  Co117  1  0.37122596  0.62915857  0.12445795  1
  Co  Co118  1  0.24798174  0.25124820  0.49929157  1
  Co  Co119  1  -0.00254379  0.50218082  -0.00061223  1
  Co  Co120  1  0.87494238  0.62847751  0.87354250  1
  Co  Co121  1  0.62712527  0.12648909  0.87175976  1
  Co  Co122  1  0.37657001  0.37007392  0.12438341  1
  Co  Co123  1  0.24911646  0.74581951  0.75277033  1
  Co  Co124  1  0.75095172  0.50053132  0.50074775  1
  Co  Co125  1  0.62666942  0.37460352  0.62591021  1
  Co  Co126  1  0.87828165  0.87436878  0.62800842  1
  Co  Co127  1  0.87254345  0.63090094  0.37760888  1
