# generated using pymatgen
data_Fe45Co19
_symmetry_space_group_name_H-M   'P 1'
_cell_length_a   11.41582289
_cell_length_b   11.41595530
_cell_length_c   11.41463760
_cell_angle_alpha   90.00164714
_cell_angle_beta   89.99835074
_cell_angle_gamma   90.00403280
_symmetry_Int_Tables_number   1
_chemical_formula_structural   Fe45Co19
_chemical_formula_sum   'Fe90 Co38'
_cell_volume   1487.58437644
_cell_formula_units_Z   2
loop_
 _symmetry_equiv_pos_site_id
 _symmetry_equiv_pos_as_xyz
  1  'x, y, z'
loop_
 _atom_site_type_symbol
 _atom_site_label
 _atom_site_symmetry_multiplicity
 _atom_site_fract_x
 _atom_site_fract_y
 _atom_site_fract_z
 _atom_site_occupancy
  Fe  Fe0  1  0.50041789  0.24986471  0.50099853  1
  Fe  Fe1  1  0.25005243  0.74995880  -0.00048019  1
  Fe  Fe2  1  0.12465124  0.87739632  0.37599730  1
  Fe  Fe3  1  0.25129323  0.75049786  0.74937818  1
  Fe  Fe4  1  0.62714994  0.12488026  0.87477808  1
  Fe  Fe5  1  0.24971328  0.00535745  0.50187774  1
  Fe  Fe6  1  0.12437262  0.62535238  0.12571904  1
  Fe  Fe7  1  0.37702228  0.87436867  0.87539613  1
  Fe  Fe8  1  -0.00100737  0.75135343  0.49984003  1
  Fe  Fe9  1  0.87449298  0.87284204  0.12460043  1
  Fe  Fe10  1  0.37591394  0.62435733  0.87441330  1
  Fe  Fe11  1  0.12522165  0.37568848  0.12615906  1
  Fe  Fe12  1  0.62594707  0.87485601  0.87555663  1
  Fe  Fe13  1  0.24940054  0.74955077  0.25140204  1
  Fe  Fe14  1  0.37425440  0.37313085  0.37489058  1
  Fe  Fe15  1  -0.00269156  0.49872414  0.74837215  1
  Fe  Fe16  1  0.49917394  0.49722119  0.00140687  1
  Fe  Fe17  1  0.00212996  0.24819950  0.49821023  1
  Fe  Fe18  1  0.62602968  0.37433301  0.12710126  1
  Fe  Fe19  1  0.62424531  0.37282574  0.37377731  1
  Fe  Fe20  1  0.87464765  0.87524638  0.37411038  1
  Fe  Fe21  1  0.12166183  0.87500322  0.87356146  1
  Fe  Fe22  1  0.12396531  0.87777864  0.62575782  1
  Fe  Fe23  1  0.12436160  0.62354695  0.87491306  1
  Fe  Fe24  1  0.12601472  0.62409441  0.62448402  1
  Fe  Fe25  1  0.24925076  0.49987932  0.25145140  1
  Fe  Fe26  1  0.74736461  -0.00047846  0.24980769  1
  Fe  Fe27  1  -0.00183954  0.49929146  0.00079181  1
  Fe  Fe28  1  0.37389720  0.37457297  0.62398249  1
  Fe  Fe29  1  0.50213288  0.74865062  0.00183237  1
  Fe  Fe30  1  0.87609845  0.12344202  0.37382726  1
  Fe  Fe31  1  -0.00062181  0.75106056  -0.00081266  1
  Fe  Fe32  1  0.25162023  0.49923702  0.75047088  1
  Fe  Fe33  1  0.87425552  0.37333407  0.12387416  1
  Fe  Fe34  1  0.37664014  0.62407433  0.37777670  1
  Fe  Fe35  1  0.49815209  0.24375578  0.24468385  1
  Fe  Fe36  1  0.12474662  0.87396634  0.12560560  1
  Fe  Fe37  1  0.49959458  0.49961479  0.74728143  1
  Fe  Fe38  1  0.62460564  0.87423619  0.62270187  1
  Fe  Fe39  1  0.50037057  0.49989686  0.25123045  1
  Fe  Fe40  1  0.50295137  0.75334925  0.25035848  1
  Fe  Fe41  1  0.87310301  0.62546754  0.87600152  1
  Fe  Fe42  1  0.74588072  0.75119709  0.24952934  1
  Fe  Fe43  1  0.75083598  0.24982017  0.49764050  1
  Fe  Fe44  1  0.24676230  0.24689097  0.49884956  1
  Fe  Fe45  1  0.75140745  0.25094890  0.75063275  1
  Fe  Fe46  1  0.74984118  0.75122365  0.75029203  1
  Fe  Fe47  1  0.87622799  0.87547914  0.62748012  1
  Fe  Fe48  1  0.62783157  0.37486405  0.62334635  1
  Fe  Fe49  1  0.37621929  0.62499110  0.12671386  1
  Fe  Fe50  1  0.25226070  0.00236774  0.75023509  1
  Fe  Fe51  1  0.74852734  0.25136290  -0.00167241  1
  Fe  Fe52  1  0.12573019  0.12435452  0.12352109  1
  Fe  Fe53  1  0.62516682  0.62542658  0.62025706  1
  Fe  Fe54  1  0.25172598  0.74951254  0.50130451  1
  Fe  Fe55  1  0.87576639  0.12638818  0.62612728  1
  Fe  Fe56  1  0.25219234  0.00276014  0.25006868  1
  Fe  Fe57  1  0.37634504  0.87813783  0.37550269  1
  Fe  Fe58  1  0.25232538  0.49721001  -0.00018578  1
  Fe  Fe59  1  0.75060012  0.49875719  0.25073377  1
  Fe  Fe60  1  0.62675005  0.62338149  0.87673493  1
  Fe  Fe61  1  0.87346480  0.12653971  0.12440193  1
  Fe  Fe62  1  0.62532274  0.62687828  0.37943187  1
  Fe  Fe63  1  0.24857152  -0.00187553  -0.00107589  1
  Fe  Fe64  1  0.00033047  -0.00100072  0.24841047  1
  Fe  Fe65  1  -0.00195460  0.00273530  0.75351851  1
  Fe  Fe66  1  0.50103505  0.00393391  0.00259940  1
  Fe  Fe67  1  0.00012363  0.25046959  0.25095457  1
  Fe  Fe68  1  0.00246160  0.24850964  -0.00373767  1
  Fe  Fe69  1  0.49834218  0.74944186  0.74719480  1
  Fe  Fe70  1  0.12147119  0.62261996  0.37508875  1
  Fe  Fe71  1  0.62618255  0.12544016  0.62566785  1
  Fe  Fe72  1  0.87386752  0.62441716  0.62247447  1
  Fe  Fe73  1  0.87619693  0.62369182  0.37455378  1
  Fe  Fe74  1  0.24968516  0.24765511  0.25039588  1
  Fe  Fe75  1  0.49896968  0.00171620  0.74926091  1
  Fe  Fe76  1  0.50109900  0.25010957  0.75096687  1
  Fe  Fe77  1  0.75296521  -0.00167773  -0.00236976  1
  Fe  Fe78  1  0.75205651  0.49785570  0.74826972  1
  Fe  Fe79  1  0.00015776  0.25001992  0.75376567  1
  Fe  Fe80  1  0.87796624  0.37733576  0.37686317  1
  Fe  Fe81  1  0.49868667  0.00172124  0.50125664  1
  Fe  Fe82  1  0.87360378  0.62636261  0.12611182  1
  Fe  Fe83  1  0.37389760  0.12957245  0.87881018  1
  Fe  Fe84  1  0.37655939  0.87553843  0.12567835  1
  Fe  Fe85  1  0.62465254  0.12397260  0.37323590  1
  Fe  Fe86  1  0.24740532  0.24967531  0.75247661  1
  Fe  Fe87  1  0.12388048  0.37496141  0.62405547  1
  Fe  Fe88  1  0.75132468  0.00014451  0.50140176  1
  Fe  Fe89  1  0.62568218  0.37685291  0.87514134  1
  Co  Co90  1  0.50055787  0.49704504  0.50022348  1
  Co  Co91  1  0.49592992  0.75116520  0.50121255  1
  Co  Co92  1  -0.00224641  0.00015695  0.00060431  1
  Co  Co93  1  -0.00190486  -0.00020500  0.49953419  1
  Co  Co94  1  0.50026697  0.00269721  0.24709980  1
  Co  Co95  1  0.50305386  0.25096105  0.00246644  1
  Co  Co96  1  0.74890841  0.75047950  0.00062553  1
  Co  Co97  1  0.87264923  0.12604258  0.87467730  1
  Co  Co98  1  0.37435743  0.37425285  0.12724977  1
  Co  Co99  1  -0.00083880  0.49860600  0.24779826  1
  Co  Co100  1  0.87459579  0.37557600  0.87603069  1
  Co  Co101  1  0.37580504  0.12812759  0.62592547  1
  Co  Co102  1  0.37376229  0.87726677  0.62477936  1
  Co  Co103  1  0.12162193  0.12445270  0.62685862  1
  Co  Co104  1  0.75242276  0.25138740  0.25312019  1
  Co  Co105  1  0.37671634  0.37340065  0.87380127  1
  Co  Co106  1  0.00045403  0.49986883  0.50200584  1
  Co  Co107  1  0.74985986  0.49723944  0.49862499  1
  Co  Co108  1  0.24975368  0.49955617  0.49791064  1
  Co  Co109  1  0.37508419  0.62255952  0.62398939  1
  Co  Co110  1  0.37012168  0.12573281  0.11905113  1
  Co  Co111  1  0.87560832  0.37136498  0.62305380  1
  Co  Co112  1  0.62444465  0.62272548  0.12537891  1
  Co  Co113  1  0.75391186  0.75209891  0.50009534  1
  Co  Co114  1  0.74963463  -0.00127724  0.74893074  1
  Co  Co115  1  0.00127826  0.75132763  0.25069681  1
  Co  Co116  1  0.75012129  0.49882220  0.00257783  1
  Co  Co117  1  0.87596484  0.87242005  0.87311360  1
  Co  Co118  1  0.00045979  0.74721251  0.74904155  1
  Co  Co119  1  0.12453285  0.37541325  0.37420453  1
  Co  Co120  1  0.12291964  0.37903200  0.87394633  1
  Co  Co121  1  0.12265018  0.12284606  0.37263649  1
  Co  Co122  1  0.37693795  0.12561357  0.37621343  1
  Co  Co123  1  0.63094242  0.12583019  0.12531401  1
  Co  Co124  1  0.12670309  0.12270564  0.87648199  1
  Co  Co125  1  0.62407558  0.87645567  0.37847111  1
  Co  Co126  1  0.62483483  0.87747286  0.12312631  1
  Co  Co127  1  0.24688713  0.25509640  -0.00187354  1
