# generated using pymatgen
data_Fe45Co19
_symmetry_space_group_name_H-M   'P 1'
_cell_length_a   11.41466651
_cell_length_b   11.41491944
_cell_length_c   11.41431680
_cell_angle_alpha   90.00031483
_cell_angle_beta   89.99645536
_cell_angle_gamma   90.00195820
_symmetry_Int_Tables_number   1
_chemical_formula_structural   Fe45Co19
_chemical_formula_sum   'Fe90 Co38'
_cell_volume   1487.25692439
_cell_formula_units_Z   2
loop_
 _symmetry_equiv_pos_site_id
 _symmetry_equiv_pos_as_xyz
  1  'x, y, z'
loop_
 _atom_site_type_symbol
 _atom_site_label
 _atom_site_symmetry_multiplicity
 _atom_site_fract_x
 _atom_site_fract_y
 _atom_site_fract_z
 _atom_site_occupancy
  Fe  Fe0  1  0.87629058  0.12372503  0.87489120  1
  Fe  Fe1  1  0.00335603  0.00138969  0.24709723  1
  Fe  Fe2  1  0.24985442  0.24720195  0.25145261  1
  Fe  Fe3  1  0.50162338  0.50374869  0.75064146  1
  Fe  Fe4  1  0.87534325  0.62774109  0.87327011  1
  Fe  Fe5  1  0.62105714  0.12254594  0.62547607  1
  Fe  Fe6  1  0.87494891  0.87778566  0.37506266  1
  Fe  Fe7  1  0.87643155  0.12398189  0.37546986  1
  Fe  Fe8  1  0.12454755  0.12633018  0.62966137  1
  Fe  Fe9  1  0.24899229  0.50172688  0.74785952  1
  Fe  Fe10  1  0.74999299  0.00045381  0.24810591  1
  Fe  Fe11  1  0.12492534  0.37150619  0.12664500  1
  Fe  Fe12  1  0.37346116  0.11964492  0.37806165  1
  Fe  Fe13  1  0.75133680  0.24976596  0.50244793  1
  Fe  Fe14  1  0.24527055  0.74748143  0.75021588  1
  Fe  Fe15  1  0.12411796  0.37459582  0.62540196  1
  Fe  Fe16  1  -0.00127409  0.49945565  -0.00001398  1
  Fe  Fe17  1  0.75122819  -0.00000375  -0.00019720  1
  Fe  Fe18  1  0.87788015  0.12554596  0.12385495  1
  Fe  Fe19  1  0.37220429  0.87568865  0.12675766  1
  Fe  Fe20  1  0.49904805  0.49930993  0.49831271  1
  Fe  Fe21  1  0.62473822  0.37588926  0.62565968  1
  Fe  Fe22  1  0.12717516  0.87939379  0.37558362  1
  Fe  Fe23  1  0.24823946  0.74944379  -0.00091872  1
  Fe  Fe24  1  0.12473589  0.37460730  0.87168473  1
  Fe  Fe25  1  0.87463434  0.37417095  0.37559858  1
  Fe  Fe26  1  0.63025469  0.87423711  0.87234349  1
  Fe  Fe27  1  0.75133493  0.74833941  0.00105508  1
  Fe  Fe28  1  0.49914042  -0.00162770  -0.00339895  1
  Fe  Fe29  1  0.00116037  0.75054369  0.25333221  1
  Fe  Fe30  1  0.12389722  0.62401752  0.37957655  1
  Fe  Fe31  1  0.25032270  0.49924851  0.50054357  1
  Fe  Fe32  1  0.12486798  0.12412490  0.37742078  1
  Fe  Fe33  1  0.25317634  0.24843585  0.50526120  1
  Fe  Fe34  1  0.37430276  0.62615982  0.12544306  1
  Fe  Fe35  1  0.74968666  0.24898862  0.74932558  1
  Fe  Fe36  1  0.49753856  0.75506228  0.49569706  1
  Fe  Fe37  1  0.62427387  0.87590001  0.62692330  1
  Fe  Fe38  1  0.88072166  0.62757480  0.62324826  1
  Fe  Fe39  1  0.37558091  0.62681905  0.62329030  1
  Fe  Fe40  1  0.00189469  0.24844561  -0.00347718  1
  Fe  Fe41  1  0.50282745  0.74817961  0.75234066  1
  Fe  Fe42  1  0.12219907  0.62686211  0.12358669  1
  Fe  Fe43  1  0.49710035  0.24999253  0.74944264  1
  Fe  Fe44  1  0.37516508  0.12382830  0.12414669  1
  Fe  Fe45  1  0.50024561  -0.00150427  0.25205896  1
  Fe  Fe46  1  0.37040821  0.12291076  0.87081711  1
  Fe  Fe47  1  0.49804082  0.49862005  0.24812927  1
  Fe  Fe48  1  0.74760910  0.50561902  0.74838658  1
  Fe  Fe49  1  0.87921897  0.87465860  0.12310918  1
  Fe  Fe50  1  0.00216449  0.50315727  0.74752260  1
  Fe  Fe51  1  0.00016791  -0.00156084  0.75405846  1
  Fe  Fe52  1  0.37323593  0.37469219  0.37460393  1
  Fe  Fe53  1  0.87556323  0.37344956  0.12566391  1
  Fe  Fe54  1  0.87670961  0.12508965  0.62674777  1
  Fe  Fe55  1  0.62495328  0.12307603  0.37656590  1
  Fe  Fe56  1  0.37371478  0.62466121  0.87552342  1
  Fe  Fe57  1  0.75062802  0.74889241  0.24800847  1
  Fe  Fe58  1  0.75079590  -0.00013713  0.50272343  1
  Fe  Fe59  1  0.25191784  0.75297799  0.49919258  1
  Fe  Fe60  1  0.62487014  0.62647787  0.37605437  1
  Fe  Fe61  1  0.00211696  0.75292730  -0.00539375  1
  Fe  Fe62  1  0.50111127  0.25003373  0.24747822  1
  Fe  Fe63  1  0.74848417  0.25043104  0.00083285  1
  Fe  Fe64  1  0.62387825  0.62194614  0.12112720  1
  Fe  Fe65  1  0.24941325  0.74952697  0.25198486  1
  Fe  Fe66  1  0.62548387  0.37872989  0.87735603  1
  Fe  Fe67  1  0.75204277  0.50210609  0.24715780  1
  Fe  Fe68  1  0.00135794  0.49847360  0.25186165  1
  Fe  Fe69  1  0.62460376  0.87636170  0.12484112  1
  Fe  Fe70  1  0.75137578  0.75177965  0.50120897  1
  Fe  Fe71  1  0.49885716  0.75146319  -0.00163437  1
  Fe  Fe72  1  0.74812477  0.24839516  0.24783341  1
  Fe  Fe73  1  0.25093139  0.49890117  0.00190189  1
  Fe  Fe74  1  0.37014489  0.87577312  0.87216124  1
  Fe  Fe75  1  0.24398261  0.00105436  0.00304456  1
  Fe  Fe76  1  0.24832767  0.50034772  0.25058314  1
  Fe  Fe77  1  0.75103473  0.50008342  0.50199737  1
  Fe  Fe78  1  -0.00148990  0.25220367  0.50110166  1
  Fe  Fe79  1  0.49931995  0.75171555  0.25208031  1
  Fe  Fe80  1  0.87651521  0.62497543  0.37727979  1
  Fe  Fe81  1  0.62480721  0.12446094  0.87468455  1
  Fe  Fe82  1  0.24893162  0.24984770  -0.00247003  1
  Fe  Fe83  1  0.12204101  0.87222913  0.62550572  1
  Fe  Fe84  1  0.87459597  0.37521366  0.87086565  1
  Fe  Fe85  1  0.37473606  0.37619975  0.87371678  1
  Fe  Fe86  1  0.87719028  0.87243344  0.62956853  1
  Fe  Fe87  1  0.49980286  0.25152372  0.00200017  1
  Fe  Fe88  1  0.62648146  0.37433381  0.37446208  1
  Fe  Fe89  1  0.49745421  0.24989947  0.50166787  1
  Co  Co90  1  0.75071972  0.00294745  0.74879644  1
  Co  Co91  1  0.75646821  0.50132781  -0.00055375  1
  Co  Co92  1  0.24923385  -0.00065471  0.50664203  1
  Co  Co93  1  0.36941212  0.88017886  0.37240213  1
  Co  Co94  1  0.49904390  -0.00466523  0.49861013  1
  Co  Co95  1  0.37805657  0.12001948  0.62790729  1
  Co  Co96  1  0.62123810  0.62652376  0.61885219  1
  Co  Co97  1  0.37732324  0.87315377  0.62908409  1
  Co  Co98  1  -0.00138530  0.25016014  0.75008864  1
  Co  Co99  1  0.25384741  0.25324774  0.74718689  1
  Co  Co100  1  0.12414330  0.87046387  0.12509114  1
  Co  Co101  1  0.24805116  -0.00323539  0.74468584  1
  Co  Co102  1  0.37696689  0.37908271  0.62535823  1
  Co  Co103  1  0.62335921  0.12181714  0.12394890  1
  Co  Co104  1  0.87168905  0.87327893  0.87241494  1
  Co  Co105  1  0.12744772  0.37235498  0.37705321  1
  Co  Co106  1  0.87375680  0.37618140  0.62829666  1
  Co  Co107  1  -0.00046666  0.25035505  0.25319489  1
  Co  Co108  1  0.00538351  0.74852221  0.75422106  1
  Co  Co109  1  0.00035922  0.00025149  0.50229397  1
  Co  Co110  1  0.12598124  0.62138114  0.87806522  1
  Co  Co111  1  0.24615768  0.00226372  0.24588695  1
  Co  Co112  1  0.62493479  0.62363702  0.88180536  1
  Co  Co113  1  0.49432657  0.49827403  0.00167019  1
  Co  Co114  1  0.12784682  0.87797046  0.87490135  1
  Co  Co115  1  0.12396837  0.62643829  0.61903752  1
  Co  Co116  1  -0.00034866  0.75363053  0.49630493  1
  Co  Co117  1  0.37508317  0.62394091  0.37569293  1
  Co  Co118  1  0.88081085  0.62778160  0.12457117  1
  Co  Co119  1  0.00346537  0.00052272  -0.00138011  1
  Co  Co120  1  0.12810223  0.12575718  0.86952700  1
  Co  Co121  1  -0.00030701  0.49561977  0.49993715  1
  Co  Co122  1  0.74705000  0.74451124  0.74697068  1
  Co  Co123  1  0.37080763  0.37207213  0.12716076  1
  Co  Co124  1  0.50017197  -0.00182582  0.75403351  1
  Co  Co125  1  0.62728523  0.37841615  0.12246933  1
  Co  Co126  1  0.12299335  0.13048882  0.12514026  1
  Co  Co127  1  0.62951611  0.87509905  0.37447626  1
