# generated using pymatgen
data_Fe45Co19
_symmetry_space_group_name_H-M   'P 1'
_cell_length_a   11.41552719
_cell_length_b   11.41463920
_cell_length_c   11.41450873
_cell_angle_alpha   90.00416971
_cell_angle_beta   90.00680437
_cell_angle_gamma   89.99630198
_symmetry_Int_Tables_number   1
_chemical_formula_structural   Fe45Co19
_chemical_formula_sum   'Fe90 Co38'
_cell_volume   1487.35754433
_cell_formula_units_Z   2
loop_
 _symmetry_equiv_pos_site_id
 _symmetry_equiv_pos_as_xyz
  1  'x, y, z'
loop_
 _atom_site_type_symbol
 _atom_site_label
 _atom_site_symmetry_multiplicity
 _atom_site_fract_x
 _atom_site_fract_y
 _atom_site_fract_z
 _atom_site_occupancy
  Fe  Fe0  1  0.50134074  0.74973943  0.74738550  1
  Fe  Fe1  1  0.25114772  0.24542573  0.25040173  1
  Fe  Fe2  1  -0.00177124  0.75087768  0.24977232  1
  Fe  Fe3  1  0.12507262  0.87639361  0.62466687  1
  Fe  Fe4  1  0.37789876  0.12456184  0.87610374  1
  Fe  Fe5  1  0.62595369  0.37749814  0.87820587  1
  Fe  Fe6  1  0.50334927  -0.00149881  0.75217971  1
  Fe  Fe7  1  0.37306545  0.62390060  0.87824518  1
  Fe  Fe8  1  0.87209285  0.37649939  0.12204198  1
  Fe  Fe9  1  0.50040185  0.50056719  0.49974121  1
  Fe  Fe10  1  0.75208969  0.25226976  0.75502369  1
  Fe  Fe11  1  0.12461496  0.87380068  0.87557395  1
  Fe  Fe12  1  0.37792860  0.62594517  0.37338449  1
  Fe  Fe13  1  -0.00141183  0.24897288  0.49981459  1
  Fe  Fe14  1  0.25116199  0.75034322  0.49871327  1
  Fe  Fe15  1  0.62578709  0.37275532  0.37399397  1
  Fe  Fe16  1  0.74722221  0.75082689  0.50133800  1
  Fe  Fe17  1  0.74542004  0.00247637  -0.00230982  1
  Fe  Fe18  1  0.74698596  -0.00183057  0.49554501  1
  Fe  Fe19  1  0.62490513  0.87533305  0.12417738  1
  Fe  Fe20  1  0.87320723  0.87502339  0.62543753  1
  Fe  Fe21  1  0.37961341  0.87463989  0.37508461  1
  Fe  Fe22  1  0.12485304  0.62550858  0.62537234  1
  Fe  Fe23  1  0.50024775  0.25239160  0.75203705  1
  Fe  Fe24  1  0.75002187  0.74844454  0.74935540  1
  Fe  Fe25  1  0.12453461  0.12466317  0.62540950  1
  Fe  Fe26  1  0.37546953  0.37707443  0.87863332  1
  Fe  Fe27  1  0.12502446  0.87446208  0.12572717  1
  Fe  Fe28  1  0.24939507  0.24834277  -0.00021805  1
  Fe  Fe29  1  0.74984849  0.24682654  0.24477957  1
  Fe  Fe30  1  -0.00251855  0.00122518  0.49748091  1
  Fe  Fe31  1  0.87280842  0.12340694  0.62531454  1
  Fe  Fe32  1  -0.00383976  0.24840887  0.24746547  1
  Fe  Fe33  1  0.62302488  0.62774048  0.37329652  1
  Fe  Fe34  1  0.25128053  0.00265515  0.49669656  1
  Fe  Fe35  1  0.87383031  0.62427397  0.37339824  1
  Fe  Fe36  1  0.12529060  0.87718352  0.37348592  1
  Fe  Fe37  1  -0.00129498  0.75021740  -0.00000882  1
  Fe  Fe38  1  0.87733779  0.61978321  0.87270265  1
  Fe  Fe39  1  0.49985050  0.74963966  0.00251954  1
  Fe  Fe40  1  0.75022831  0.75187497  0.25003862  1
  Fe  Fe41  1  0.87308079  0.87775853  0.12243124  1
  Fe  Fe42  1  0.25028564  0.24835789  0.75147335  1
  Fe  Fe43  1  0.50155916  0.49928826  0.24667894  1
  Fe  Fe44  1  0.12366680  0.37337573  0.87511274  1
  Fe  Fe45  1  0.62372196  0.62349552  0.87441636  1
  Fe  Fe46  1  0.24951177  0.49998752  0.49880796  1
  Fe  Fe47  1  0.37515059  0.37369892  0.37298780  1
  Fe  Fe48  1  0.37724005  0.12436152  0.62530478  1
  Fe  Fe49  1  0.24745828  0.50006148  0.24815434  1
  Fe  Fe50  1  0.62626722  0.12425451  0.62708371  1
  Fe  Fe51  1  0.12255392  0.12417034  0.12327491  1
  Fe  Fe52  1  0.37734158  0.87790745  0.12531360  1
  Fe  Fe53  1  -0.00091580  0.49993837  0.49959142  1
  Fe  Fe54  1  0.87555951  0.37816691  0.62838496  1
  Fe  Fe55  1  -0.00097274  -0.00007078  0.75285595  1
  Fe  Fe56  1  0.00499987  0.49975621  0.00479391  1
  Fe  Fe57  1  0.37743197  0.87416020  0.87612448  1
  Fe  Fe58  1  0.37466771  0.37532152  0.62514048  1
  Fe  Fe59  1  0.24928798  0.00098011  0.75189671  1
  Fe  Fe60  1  0.37439521  0.37469245  0.12355947  1
  Fe  Fe61  1  0.12596219  0.37382747  0.62535253  1
  Fe  Fe62  1  0.74929127  0.00137081  0.25191990  1
  Fe  Fe63  1  0.75094680  0.25088499  0.50251122  1
  Fe  Fe64  1  0.87814272  0.12569244  0.88159017  1
  Fe  Fe65  1  0.12386917  0.62444379  0.37186275  1
  Fe  Fe66  1  0.24990522  0.24733813  0.49826432  1
  Fe  Fe67  1  -0.00079582  0.75009635  0.75032886  1
  Fe  Fe68  1  0.62624843  0.37476791  0.12130182  1
  Fe  Fe69  1  0.38005701  0.12454811  0.12399989  1
  Fe  Fe70  1  0.37568561  0.62330463  0.62544190  1
  Fe  Fe71  1  0.25213563  0.75239946  0.24962464  1
  Fe  Fe72  1  0.74918884  -0.00062017  0.75551938  1
  Fe  Fe73  1  0.62390540  0.37755141  0.62684787  1
  Fe  Fe74  1  0.75167395  0.74775714  -0.00104950  1
  Fe  Fe75  1  -0.00182869  0.24929128  0.75200858  1
  Fe  Fe76  1  0.50325444  0.00267318  0.25342477  1
  Fe  Fe77  1  0.37018801  0.62364080  0.12211847  1
  Fe  Fe78  1  0.12410741  0.37342509  0.37201415  1
  Fe  Fe79  1  0.24875688  0.50040426  0.75175184  1
  Fe  Fe80  1  -0.00073038  0.75034327  0.49945122  1
  Fe  Fe81  1  0.87358512  0.37497449  0.37256778  1
  Fe  Fe82  1  0.25023587  0.75063288  0.75062714  1
  Fe  Fe83  1  0.87451197  0.62247128  0.12789806  1
  Fe  Fe84  1  0.62709596  0.62426922  0.12527562  1
  Fe  Fe85  1  0.74969337  0.50101734  0.50098650  1
  Fe  Fe86  1  -0.00360209  0.00134928  0.25089195  1
  Fe  Fe87  1  0.24963876  -0.00092843  -0.00021434  1
  Fe  Fe88  1  0.50024786  0.24777930  0.49927559  1
  Fe  Fe89  1  0.37705534  0.87721306  0.62316048  1
  Co  Co90  1  0.87554744  0.12109712  0.11990620  1
  Co  Co91  1  0.00297741  0.49992503  0.74845389  1
  Co  Co92  1  0.00057426  0.49904144  0.24717838  1
  Co  Co93  1  0.62095812  0.87033817  0.37260569  1
  Co  Co94  1  0.74749053  0.49936433  0.25049068  1
  Co  Co95  1  0.12753774  0.37023086  0.12846348  1
  Co  Co96  1  0.50363692  0.00235048  0.49751023  1
  Co  Co97  1  0.50101112  0.50152183  0.00285098  1
  Co  Co98  1  0.00250209  -0.00391740  -0.00118061  1
  Co  Co99  1  0.12568998  0.62698679  0.87723739  1
  Co  Co100  1  0.25101704  0.75513035  0.00039548  1
  Co  Co101  1  0.37781762  0.12629082  0.37371558  1
  Co  Co102  1  0.50275557  -0.00139974  -0.00288778  1
  Co  Co103  1  0.49868207  0.74794434  0.24367079  1
  Co  Co104  1  0.62181193  0.12406868  0.12440392  1
  Co  Co105  1  0.87506918  0.62520612  0.62528300  1
  Co  Co106  1  0.74959210  0.49860276  0.74979933  1
  Co  Co107  1  0.12397280  0.12553503  0.87717011  1
  Co  Co108  1  0.62429837  0.62194065  0.62637481  1
  Co  Co109  1  0.62798319  0.13046541  0.37490723  1
  Co  Co110  1  0.74898511  0.24733277  -0.00103242  1
  Co  Co111  1  0.75048758  0.50266280  -0.00056769  1
  Co  Co112  1  0.87657262  0.37818548  0.87821925  1
  Co  Co113  1  0.25109440  0.00136301  0.24947963  1
  Co  Co114  1  0.62649251  0.87766119  0.62677958  1
  Co  Co115  1  0.50100169  0.25103707  -0.00026958  1
  Co  Co116  1  0.87324009  0.87466298  0.87678509  1
  Co  Co117  1  0.50087689  0.74951039  0.50472316  1
  Co  Co118  1  0.49841723  0.49912568  0.75153179  1
  Co  Co119  1  0.12246114  0.12568524  0.37328071  1
  Co  Co120  1  0.12728785  0.62994071  0.12539537  1
  Co  Co121  1  0.87186195  0.12783551  0.37556667  1
  Co  Co122  1  0.87437653  0.87350940  0.37488383  1
  Co  Co123  1  0.50156700  0.25227752  0.24863309  1
  Co  Co124  1  0.62530539  0.86979691  0.87641095  1
  Co  Co125  1  0.24432348  0.49753003  0.00112419  1
  Co  Co126  1  0.00013733  0.25339150  0.00203999  1
  Co  Co127  1  0.62239899  0.12754343  0.87451975  1
