# generated using pymatgen
data_Fe45Co19
_symmetry_space_group_name_H-M   'P 1'
_cell_length_a   11.41553252
_cell_length_b   11.41454411
_cell_length_c   11.41596778
_cell_angle_alpha   89.99778656
_cell_angle_beta   89.99506318
_cell_angle_gamma   89.99869264
_symmetry_Int_Tables_number   1
_chemical_formula_structural   Fe45Co19
_chemical_formula_sum   'Fe90 Co38'
_cell_volume   1487.53597841
_cell_formula_units_Z   2
loop_
 _symmetry_equiv_pos_site_id
 _symmetry_equiv_pos_as_xyz
  1  'x, y, z'
loop_
 _atom_site_type_symbol
 _atom_site_label
 _atom_site_symmetry_multiplicity
 _atom_site_fract_x
 _atom_site_fract_y
 _atom_site_fract_z
 _atom_site_occupancy
  Fe  Fe0  1  0.74832712  -0.00015366  0.50026689  1
  Fe  Fe1  1  0.62408658  0.87680321  0.12569094  1
  Fe  Fe2  1  0.50289240  0.74402961  0.24763264  1
  Fe  Fe3  1  0.50326834  0.49850165  0.49989922  1
  Fe  Fe4  1  0.37555257  0.87265764  0.37395863  1
  Fe  Fe5  1  0.75015090  0.25050446  0.75050930  1
  Fe  Fe6  1  0.25743192  0.50121920  0.75178025  1
  Fe  Fe7  1  0.37316419  0.86897377  0.87797192  1
  Fe  Fe8  1  0.24829995  0.25304893  -0.00284781  1
  Fe  Fe9  1  0.49719700  0.25091927  0.74935371  1
  Fe  Fe10  1  0.37546985  0.87236218  0.12356290  1
  Fe  Fe11  1  0.00254252  0.25194106  -0.00236167  1
  Fe  Fe12  1  0.24958062  0.74800208  0.50242432  1
  Fe  Fe13  1  0.62495709  0.12675988  0.37381407  1
  Fe  Fe14  1  0.25140485  -0.00037016  0.49849630  1
  Fe  Fe15  1  0.75057581  0.00133221  0.24817949  1
  Fe  Fe16  1  0.50200054  0.25328528  0.00257582  1
  Fe  Fe17  1  0.87625506  0.12648019  0.87503580  1
  Fe  Fe18  1  0.37337460  0.12786760  0.37233748  1
  Fe  Fe19  1  0.87472887  0.12443944  0.62554986  1
  Fe  Fe20  1  0.25186222  -0.00158309  0.74994626  1
  Fe  Fe21  1  0.62258450  0.12143247  0.62666193  1
  Fe  Fe22  1  0.37629600  0.62320695  0.37714396  1
  Fe  Fe23  1  0.00027274  -0.00043316  0.50054226  1
  Fe  Fe24  1  0.87226313  0.37541800  0.62655220  1
  Fe  Fe25  1  0.62238951  0.87766381  0.62595335  1
  Fe  Fe26  1  0.62434451  0.62416631  0.87448754  1
  Fe  Fe27  1  0.74979579  -0.00108940  0.75153180  1
  Fe  Fe28  1  0.87606503  0.87298212  0.87629737  1
  Fe  Fe29  1  0.12492718  0.62116956  0.12656818  1
  Fe  Fe30  1  0.37623690  0.12403237  0.62425473  1
  Fe  Fe31  1  0.50231915  0.25126357  0.50064173  1
  Fe  Fe32  1  0.00138959  -0.00316525  0.75104948  1
  Fe  Fe33  1  0.24896131  0.25357649  0.50110674  1
  Fe  Fe34  1  0.12560769  0.37670281  0.12509142  1
  Fe  Fe35  1  0.12625481  0.12560778  0.12718540  1
  Fe  Fe36  1  0.87667323  0.87378872  0.12300423  1
  Fe  Fe37  1  0.87320694  0.37633528  0.12276708  1
  Fe  Fe38  1  -0.00665828  0.50293529  0.75368266  1
  Fe  Fe39  1  0.74982311  0.49768747  -0.00601386  1
  Fe  Fe40  1  0.00526028  0.74683843  -0.00364377  1
  Fe  Fe41  1  0.74851247  0.74579998  0.24902518  1
  Fe  Fe42  1  0.87421493  0.12669910  0.37639713  1
  Fe  Fe43  1  0.87223101  0.62566922  0.37978402  1
  Fe  Fe44  1  0.49844186  0.74814224  0.74951212  1
  Fe  Fe45  1  0.49821405  0.00075510  0.25008365  1
  Fe  Fe46  1  0.37300483  0.12710104  0.12683883  1
  Fe  Fe47  1  0.37563104  0.62445755  0.12139779  1
  Fe  Fe48  1  -0.00356488  0.49929272  0.25117098  1
  Fe  Fe49  1  0.74656503  0.25116698  -0.00026611  1
  Fe  Fe50  1  0.00097467  0.74826295  0.50262671  1
  Fe  Fe51  1  0.12564406  0.12534870  0.62728032  1
  Fe  Fe52  1  0.24940277  0.00012864  0.00057179  1
  Fe  Fe53  1  0.62667343  0.37597523  0.62803741  1
  Fe  Fe54  1  0.87189948  0.37428543  0.37754969  1
  Fe  Fe55  1  0.24940263  0.49843600  0.50150826  1
  Fe  Fe56  1  0.00145538  0.25314805  0.25053579  1
  Fe  Fe57  1  0.00117542  0.25182758  0.50241233  1
  Fe  Fe58  1  -0.00016562  0.74673753  0.24980483  1
  Fe  Fe59  1  0.50242288  0.74868939  0.50027825  1
  Fe  Fe60  1  0.62290909  0.12524750  0.87457436  1
  Fe  Fe61  1  0.49709781  0.50094131  0.75005493  1
  Fe  Fe62  1  -0.00128265  0.50041394  0.50273681  1
  Fe  Fe63  1  0.24924478  0.49983523  -0.00445226  1
  Fe  Fe64  1  0.74857731  0.25086489  0.24766392  1
  Fe  Fe65  1  0.00098811  0.50022084  -0.00543852  1
  Fe  Fe66  1  0.24952651  0.74875282  0.24808548  1
  Fe  Fe67  1  0.00053602  0.00065739  0.24975836  1
  Fe  Fe68  1  0.12671174  0.12631734  0.37335565  1
  Fe  Fe69  1  0.87333146  0.62422216  0.12036025  1
  Fe  Fe70  1  0.87468113  0.87365277  0.37448308  1
  Fe  Fe71  1  0.49949878  0.25692999  0.24683019  1
  Fe  Fe72  1  0.12422692  0.12583487  0.87161989  1
  Fe  Fe73  1  0.12359812  0.87587346  0.12379490  1
  Fe  Fe74  1  0.62246645  0.87599081  0.87428402  1
  Fe  Fe75  1  0.37649093  0.87546262  0.62322001  1
  Fe  Fe76  1  0.12578612  0.37583962  0.63158782  1
  Fe  Fe77  1  0.12530188  0.87391467  0.37566234  1
  Fe  Fe78  1  0.87492633  0.87116883  0.62641592  1
  Fe  Fe79  1  0.37583244  0.12715062  0.87564818  1
  Fe  Fe80  1  0.74953572  0.00152478  0.00039502  1
  Fe  Fe81  1  0.63005155  0.62469579  0.62518153  1
  Fe  Fe82  1  0.50026949  0.49844947  -0.00014202  1
  Fe  Fe83  1  0.74545165  0.75013219  -0.00051855  1
  Fe  Fe84  1  0.25341471  0.49664257  0.25145681  1
  Fe  Fe85  1  0.12490270  0.62535766  0.63007960  1
  Fe  Fe86  1  0.12548865  0.62259332  0.37472287  1
  Fe  Fe87  1  0.87640405  0.12586015  0.12332406  1
  Fe  Fe88  1  0.49893194  0.00003801  0.00000590  1
  Fe  Fe89  1  0.62456470  0.87442448  0.37408256  1
  Co  Co90  1  0.37718762  0.37419576  0.87572181  1
  Co  Co91  1  0.25030523  -0.00264155  0.24926604  1
  Co  Co92  1  0.74675322  0.75076406  0.75160530  1
  Co  Co93  1  0.37643380  0.62843232  0.87917888  1
  Co  Co94  1  0.62805863  0.38068443  0.12677539  1
  Co  Co95  1  0.12550255  0.37553001  0.86871949  1
  Co  Co96  1  0.74976808  0.49851733  0.50149976  1
  Co  Co97  1  0.12575648  0.87350376  0.62485257  1
  Co  Co98  1  0.25404256  0.74902298  0.74730339  1
  Co  Co99  1  0.37707109  0.37597299  0.37874237  1
  Co  Co100  1  0.25452408  0.24995564  0.74997321  1
  Co  Co101  1  0.62297798  0.12412174  0.12516260  1
  Co  Co102  1  0.00054704  0.74934962  0.75231073  1
  Co  Co103  1  0.24978714  0.25624066  0.25073996  1
  Co  Co104  1  0.24502894  0.74673221  0.00258645  1
  Co  Co105  1  0.75280630  0.50027246  0.75339606  1
  Co  Co106  1  0.87140328  0.62808005  0.62527500  1
  Co  Co107  1  0.62575585  0.62257072  0.37645668  1
  Co  Co108  1  0.37581400  0.37526848  0.62361600  1
  Co  Co109  1  0.49747814  0.50011077  0.24888877  1
  Co  Co110  1  0.62681962  0.37611023  0.37247093  1
  Co  Co111  1  0.74758172  0.24932925  0.50332727  1
  Co  Co112  1  0.74748865  0.75256974  0.50052672  1
  Co  Co113  1  -0.00237588  0.25073229  0.74892462  1
  Co  Co114  1  0.12848714  0.62456251  0.86902203  1
  Co  Co115  1  0.87503286  0.37132968  0.87576078  1
  Co  Co116  1  0.62729543  0.61938898  0.12270357  1
  Co  Co117  1  0.50472953  0.74924392  0.00158386  1
  Co  Co118  1  0.12824256  0.87415133  0.87453585  1
  Co  Co119  1  0.75291938  0.50348330  0.25195748  1
  Co  Co120  1  0.37627757  0.62406538  0.62130237  1
  Co  Co121  1  0.49595337  -0.00097898  0.75389355  1
  Co  Co122  1  0.87223531  0.62990252  0.87618367  1
  Co  Co123  1  0.62260831  0.37444150  0.87212782  1
  Co  Co124  1  0.49932983  0.00146343  0.49592716  1
  Co  Co125  1  0.12401899  0.37762638  0.37574854  1
  Co  Co126  1  0.00083353  0.00150877  -0.00127575  1
  Co  Co127  1  0.37278401  0.37631137  0.12118626  1
