# generated using pymatgen
data_Fe45Co19
_symmetry_space_group_name_H-M   'P 1'
_cell_length_a   11.41532086
_cell_length_b   11.41525170
_cell_length_c   11.41640246
_cell_angle_alpha   90.00140199
_cell_angle_beta   89.99415432
_cell_angle_gamma   89.99885462
_symmetry_Int_Tables_number   1
_chemical_formula_structural   Fe45Co19
_chemical_formula_sum   'Fe90 Co38'
_cell_volume   1487.65724947
_cell_formula_units_Z   2
loop_
 _symmetry_equiv_pos_site_id
 _symmetry_equiv_pos_as_xyz
  1  'x, y, z'
loop_
 _atom_site_type_symbol
 _atom_site_label
 _atom_site_symmetry_multiplicity
 _atom_site_fract_x
 _atom_site_fract_y
 _atom_site_fract_z
 _atom_site_occupancy
  Fe  Fe0  1  0.49814943  -0.00043030  0.49837792  1
  Fe  Fe1  1  0.50270123  0.25057930  0.75035579  1
  Fe  Fe2  1  0.74805300  0.24950044  0.75032166  1
  Fe  Fe3  1  0.87364674  0.87591787  0.12513751  1
  Fe  Fe4  1  0.37816579  0.62720284  0.62556016  1
  Fe  Fe5  1  -0.00437895  -0.00073402  0.50187343  1
  Fe  Fe6  1  0.24941857  0.50194203  0.75207272  1
  Fe  Fe7  1  0.37668231  0.87136699  0.62609906  1
  Fe  Fe8  1  0.37403210  0.37449224  0.62710417  1
  Fe  Fe9  1  0.24996169  0.24879958  -0.00288583  1
  Fe  Fe10  1  0.37493276  0.12735668  0.62382033  1
  Fe  Fe11  1  0.50064086  -0.00156305  -0.00011035  1
  Fe  Fe12  1  0.75214835  0.50365245  0.49995972  1
  Fe  Fe13  1  0.12848366  0.87721820  0.87344996  1
  Fe  Fe14  1  0.25217219  0.49792573  -0.00208425  1
  Fe  Fe15  1  0.75042791  0.00002219  0.74576338  1
  Fe  Fe16  1  0.12726397  0.87368340  0.37356970  1
  Fe  Fe17  1  0.12520522  0.37494939  0.62567569  1
  Fe  Fe18  1  0.62323518  0.62314854  0.37290189  1
  Fe  Fe19  1  0.25167581  0.50083024  0.24888845  1
  Fe  Fe20  1  0.87192420  0.37476435  0.12580239  1
  Fe  Fe21  1  0.37319171  0.37352992  0.37476659  1
  Fe  Fe22  1  0.74727703  0.24800530  0.00175238  1
  Fe  Fe23  1  0.37252108  0.87522675  0.37237285  1
  Fe  Fe24  1  0.25148970  0.00120069  0.50035424  1
  Fe  Fe25  1  -0.00306408  0.25097446  0.50080044  1
  Fe  Fe26  1  0.12458880  0.62553743  0.37386019  1
  Fe  Fe27  1  0.12469961  0.62620437  0.12369811  1
  Fe  Fe28  1  -0.00293065  -0.00078280  0.74869515  1
  Fe  Fe29  1  0.12597953  0.37489421  0.37499062  1
  Fe  Fe30  1  0.37508778  0.62608333  0.37534455  1
  Fe  Fe31  1  0.37942013  0.62503010  0.12306376  1
  Fe  Fe32  1  -0.00006303  0.50112050  0.75251790  1
  Fe  Fe33  1  0.62609653  0.37704925  0.87485690  1
  Fe  Fe34  1  0.12350441  0.87246471  0.62721538  1
  Fe  Fe35  1  0.50047497  0.25246566  0.49856409  1
  Fe  Fe36  1  0.87224431  0.87423388  0.37786743  1
  Fe  Fe37  1  0.37618300  0.37376080  0.12537332  1
  Fe  Fe38  1  0.62668594  0.87625994  0.87552749  1
  Fe  Fe39  1  0.12360014  0.12569626  0.37798705  1
  Fe  Fe40  1  0.62789991  0.87597005  0.37837627  1
  Fe  Fe41  1  0.62198162  0.62526085  0.62341286  1
  Fe  Fe42  1  0.49974703  0.49688058  0.49885205  1
  Fe  Fe43  1  0.62648614  0.87375071  0.62062335  1
  Fe  Fe44  1  0.24749138  0.24889454  0.75190515  1
  Fe  Fe45  1  0.62500356  0.12551714  0.62277845  1
  Fe  Fe46  1  -0.00070369  0.49935802  -0.00063541  1
  Fe  Fe47  1  0.37869222  0.62751394  0.87591541  1
  Fe  Fe48  1  -0.00169957  0.50049419  0.49905117  1
  Fe  Fe49  1  -0.00127468  0.49915111  0.24953803  1
  Fe  Fe50  1  0.87184212  0.37411025  0.37193167  1
  Fe  Fe51  1  0.50220757  0.25029221  -0.00134319  1
  Fe  Fe52  1  0.37267956  0.87786143  0.12922149  1
  Fe  Fe53  1  0.37791999  0.12296255  0.12770127  1
  Fe  Fe54  1  0.87297029  0.62452278  0.87445905  1
  Fe  Fe55  1  0.24996660  0.74929984  0.50104072  1
  Fe  Fe56  1  0.00007655  0.75229977  -0.00184809  1
  Fe  Fe57  1  0.00082719  0.24919382  -0.00211377  1
  Fe  Fe58  1  0.87123631  0.87548211  0.87478141  1
  Fe  Fe59  1  0.62643147  0.87670554  0.12510360  1
  Fe  Fe60  1  0.00153161  -0.00110317  0.24988224  1
  Fe  Fe61  1  0.62602237  0.38012644  0.12818072  1
  Fe  Fe62  1  0.74832635  0.00405956  0.25127402  1
  Fe  Fe63  1  0.74894884  0.74799045  0.74726031  1
  Fe  Fe64  1  0.50144839  -0.00038242  0.74799362  1
  Fe  Fe65  1  0.74923207  0.74705524  0.24999010  1
  Fe  Fe66  1  0.12604886  0.37528666  0.12373245  1
  Fe  Fe67  1  -0.00023449  -0.00159481  -0.00020144  1
  Fe  Fe68  1  0.75089859  0.24707207  0.49764971  1
  Fe  Fe69  1  0.25072049  0.75224665  0.00030236  1
  Fe  Fe70  1  0.12526637  0.12301324  0.12252312  1
  Fe  Fe71  1  0.62253294  0.62586275  0.87929416  1
  Fe  Fe72  1  0.87223900  0.37644251  0.87523450  1
  Fe  Fe73  1  0.24866102  0.24681832  0.25148818  1
  Fe  Fe74  1  -0.00044575  0.24973292  0.24901469  1
  Fe  Fe75  1  0.74860859  0.74889584  0.00230598  1
  Fe  Fe76  1  0.50043391  0.75092321  0.24941280  1
  Fe  Fe77  1  0.12410445  0.12524038  0.62446836  1
  Fe  Fe78  1  0.00015056  0.75145238  0.25033808  1
  Fe  Fe79  1  0.87365556  0.12399459  0.12560013  1
  Fe  Fe80  1  0.50486706  0.25003803  0.25259000  1
  Fe  Fe81  1  0.00060119  0.24948407  0.75248178  1
  Fe  Fe82  1  0.37456420  0.87533978  0.87194960  1
  Fe  Fe83  1  0.24964447  0.50023919  0.50146501  1
  Fe  Fe84  1  0.87509259  0.62520365  0.12553775  1
  Fe  Fe85  1  0.50177422  0.49831202  0.75075443  1
  Fe  Fe86  1  0.12117294  0.62837079  0.62628277  1
  Fe  Fe87  1  0.87179838  0.37677141  0.62704292  1
  Fe  Fe88  1  0.87221649  0.12374067  0.87486358  1
  Fe  Fe89  1  0.37546398  0.12325458  0.87383685  1
  Co  Co90  1  0.49982347  0.75094814  0.49675702  1
  Co  Co91  1  0.25003549  0.25016412  0.49994888  1
  Co  Co92  1  0.37722338  0.12568873  0.37342860  1
  Co  Co93  1  0.75426775  0.00337073  0.50247765  1
  Co  Co94  1  0.37548438  0.37361264  0.87225773  1
  Co  Co95  1  0.87659827  0.12456179  0.37228237  1
  Co  Co96  1  0.87940629  0.62752130  0.62642400  1
  Co  Co97  1  0.87441769  0.86864331  0.62312435  1
  Co  Co98  1  0.74696405  0.24628317  0.24927315  1
  Co  Co99  1  0.25179688  0.00068055  0.74552502  1
  Co  Co100  1  0.50308245  -0.00222667  0.25257654  1
  Co  Co101  1  0.75213294  0.50356586  0.24997503  1
  Co  Co102  1  0.12499248  0.37607162  0.87589955  1
  Co  Co103  1  0.12619067  0.62590635  0.87743748  1
  Co  Co104  1  0.87483821  0.12784124  0.62733639  1
  Co  Co105  1  0.62116102  0.62273685  0.12512003  1
  Co  Co106  1  0.62249128  0.12213099  0.12412586  1
  Co  Co107  1  0.00029379  0.75115857  0.49700199  1
  Co  Co108  1  0.74731223  0.50346874  0.74923562  1
  Co  Co109  1  0.74967960  0.00146803  0.00122010  1
  Co  Co110  1  0.62906489  0.37717495  0.37420913  1
  Co  Co111  1  0.74956365  0.50136935  0.00111915  1
  Co  Co112  1  0.49992685  0.49627344  -0.00130530  1
  Co  Co113  1  0.87753216  0.62665898  0.37422969  1
  Co  Co114  1  0.75010213  0.74405351  0.50061763  1
  Co  Co115  1  0.25071753  0.74833788  0.74952380  1
  Co  Co116  1  0.25101772  0.74710359  0.24837205  1
  Co  Co117  1  0.62498450  0.12216827  0.87437368  1
  Co  Co118  1  0.62389228  0.12280377  0.37840249  1
  Co  Co119  1  0.49711920  0.49910610  0.25206017  1
  Co  Co120  1  0.62769072  0.37489500  0.62320760  1
  Co  Co121  1  0.12617358  0.87392403  0.12547224  1
  Co  Co122  1  0.50056028  0.75599462  0.00223969  1
  Co  Co123  1  0.24666918  0.00435118  0.25143734  1
  Co  Co124  1  -0.00080447  0.75150134  0.75534228  1
  Co  Co125  1  0.50348428  0.75141564  0.75037826  1
  Co  Co126  1  0.12552081  0.12068180  0.87459430  1
  Co  Co127  1  0.25193659  -0.00039775  0.00173622  1
