# generated using pymatgen
data_Fe45Co19
_symmetry_space_group_name_H-M   'P 1'
_cell_length_a   11.41623818
_cell_length_b   11.41474107
_cell_length_c   11.41469162
_cell_angle_alpha   89.98953334
_cell_angle_beta   89.99273181
_cell_angle_gamma   89.99270156
_symmetry_Int_Tables_number   1
_chemical_formula_structural   Fe45Co19
_chemical_formula_sum   'Fe90 Co38'
_cell_volume   1487.48725899
_cell_formula_units_Z   2
loop_
 _symmetry_equiv_pos_site_id
 _symmetry_equiv_pos_as_xyz
  1  'x, y, z'
loop_
 _atom_site_type_symbol
 _atom_site_label
 _atom_site_symmetry_multiplicity
 _atom_site_fract_x
 _atom_site_fract_y
 _atom_site_fract_z
 _atom_site_occupancy
  Fe  Fe0  1  0.12620155  0.88093988  0.62772894  1
  Fe  Fe1  1  0.12450967  0.37293878  0.62541736  1
  Fe  Fe2  1  0.37547512  0.12386585  0.37057596  1
  Fe  Fe3  1  0.49965219  -0.00245582  0.49918025  1
  Fe  Fe4  1  0.37196177  0.87388012  0.88144056  1
  Fe  Fe5  1  0.37466791  0.37576549  0.87631604  1
  Fe  Fe6  1  0.87800168  0.62820294  0.12332103  1
  Fe  Fe7  1  0.75143326  0.75078319  0.24993258  1
  Fe  Fe8  1  0.37543531  0.12506784  0.62416940  1
  Fe  Fe9  1  0.49951598  0.25011776  0.75074680  1
  Fe  Fe10  1  0.00135635  0.00008383  -0.00014436  1
  Fe  Fe11  1  0.25146130  0.50101389  0.75042983  1
  Fe  Fe12  1  -0.00181862  0.50011932  -0.00151000  1
  Fe  Fe13  1  0.74713048  0.25107143  0.50057993  1
  Fe  Fe14  1  0.87558111  0.37399849  0.37421807  1
  Fe  Fe15  1  0.37718199  0.37524902  0.37272138  1
  Fe  Fe16  1  0.12514021  0.12604382  0.12884487  1
  Fe  Fe17  1  0.37428886  0.12412571  0.87862450  1
  Fe  Fe18  1  0.24882512  0.49997533  0.00098371  1
  Fe  Fe19  1  0.74775251  0.75072687  0.50079528  1
  Fe  Fe20  1  0.74868781  0.24859616  0.74924360  1
  Fe  Fe21  1  0.12292783  0.62678333  0.87648077  1
  Fe  Fe22  1  0.87156699  0.12244964  0.87707317  1
  Fe  Fe23  1  0.00339985  0.24458411  0.49673568  1
  Fe  Fe24  1  0.62463323  0.87369030  0.12498732  1
  Fe  Fe25  1  0.62365172  0.37576797  0.62628297  1
  Fe  Fe26  1  0.50168930  0.50214282  -0.00080128  1
  Fe  Fe27  1  -0.00206878  0.49945158  0.75211462  1
  Fe  Fe28  1  0.50132117  0.24998306  0.49795140  1
  Fe  Fe29  1  0.75142414  0.50334492  -0.00233342  1
  Fe  Fe30  1  0.49701570  0.50190547  0.75072691  1
  Fe  Fe31  1  0.62511722  0.12122500  0.87392763  1
  Fe  Fe32  1  0.00492455  0.75171371  0.49995355  1
  Fe  Fe33  1  0.24848808  0.50016172  0.49920572  1
  Fe  Fe34  1  0.74901894  0.50153569  0.49978025  1
  Fe  Fe35  1  0.50224784  0.25144522  0.00129937  1
  Fe  Fe36  1  0.62346264  0.62749154  0.62749483  1
  Fe  Fe37  1  0.00215613  0.74957006  0.25031818  1
  Fe  Fe38  1  0.25178961  0.24980421  0.74971052  1
  Fe  Fe39  1  0.62637743  0.37675130  0.87484869  1
  Fe  Fe40  1  0.12481603  0.62366042  0.62537136  1
  Fe  Fe41  1  0.87490601  0.87541595  0.12328687  1
  Fe  Fe42  1  0.62347355  0.12245862  0.12559262  1
  Fe  Fe43  1  0.00350522  0.00343551  0.49923745  1
  Fe  Fe44  1  0.87374076  0.12269855  0.62400928  1
  Fe  Fe45  1  0.24993714  0.24944367  0.00297021  1
  Fe  Fe46  1  0.37489189  0.87122939  0.61974711  1
  Fe  Fe47  1  0.24783523  0.74891555  0.24958114  1
  Fe  Fe48  1  0.49802632  -0.00163338  0.74933698  1
  Fe  Fe49  1  0.00031174  0.49981083  0.49812970  1
  Fe  Fe50  1  0.12628953  0.87708890  0.87369217  1
  Fe  Fe51  1  0.25054756  0.74892769  0.75008687  1
  Fe  Fe52  1  0.87666850  0.62772841  0.37622116  1
  Fe  Fe53  1  0.49813551  -0.00239643  0.00396244  1
  Fe  Fe54  1  0.12639628  0.87552283  0.12508671  1
  Fe  Fe55  1  -0.00370915  0.00278316  0.25065167  1
  Fe  Fe56  1  0.74747018  0.24990476  0.00177533  1
  Fe  Fe57  1  0.00062979  0.24814231  -0.00029885  1
  Fe  Fe58  1  0.62446970  0.87471927  0.37362272  1
  Fe  Fe59  1  0.25691918  -0.00159069  0.24615106  1
  Fe  Fe60  1  0.12176054  0.37486628  0.12908357  1
  Fe  Fe61  1  0.12824891  0.87861025  0.37383216  1
  Fe  Fe62  1  0.87600137  0.37308272  0.12451618  1
  Fe  Fe63  1  0.87533363  0.87384067  0.87708871  1
  Fe  Fe64  1  0.37397510  0.62960598  0.12008751  1
  Fe  Fe65  1  0.12292917  0.37488880  0.37058727  1
  Fe  Fe66  1  0.37271266  0.62939260  0.37936929  1
  Fe  Fe67  1  0.75379040  0.50108688  0.75181478  1
  Fe  Fe68  1  0.75268949  0.50200916  0.24931358  1
  Fe  Fe69  1  0.74631124  -0.00397148  0.50554108  1
  Fe  Fe70  1  0.49846866  0.75072183  0.25184542  1
  Fe  Fe71  1  0.50165233  0.50368674  0.49896292  1
  Fe  Fe72  1  0.62470310  0.62594304  0.12562216  1
  Fe  Fe73  1  0.75100665  0.00004207  0.24864261  1
  Fe  Fe74  1  0.87521507  0.87606314  0.37740386  1
  Fe  Fe75  1  0.87662118  0.37351476  0.62473722  1
  Fe  Fe76  1  0.62541519  0.12219640  0.37481870  1
  Fe  Fe77  1  0.62619295  0.87477290  0.87498813  1
  Fe  Fe78  1  0.12518421  0.37395079  0.87482344  1
  Fe  Fe79  1  0.75043100  0.24803541  0.24846765  1
  Fe  Fe80  1  0.87744974  0.62747784  0.62467578  1
  Fe  Fe81  1  0.75300805  0.75268142  0.74917243  1
  Fe  Fe82  1  0.24771311  0.24665225  0.49780079  1
  Fe  Fe83  1  0.37866801  0.37405174  0.12677184  1
  Fe  Fe84  1  0.37463913  0.37561026  0.62330851  1
  Fe  Fe85  1  0.12855279  0.12175239  0.87225132  1
  Fe  Fe86  1  -0.00078965  0.24762999  0.75119149  1
  Fe  Fe87  1  0.62359356  0.37845156  0.37017536  1
  Fe  Fe88  1  0.25074586  0.50237451  0.24917142  1
  Fe  Fe89  1  0.49598796  0.74838563  0.75334360  1
  Co  Co90  1  0.62617670  0.62591782  0.87218144  1
  Co  Co91  1  0.50461888  0.74900705  0.49686145  1
  Co  Co92  1  0.37737416  0.12751661  0.12557771  1
  Co  Co93  1  0.87893183  0.87565309  0.62186676  1
  Co  Co94  1  0.50367631  0.24902870  0.24996168  1
  Co  Co95  1  0.00198926  0.75248585  0.74782881  1
  Co  Co96  1  0.61999108  0.87121068  0.62782969  1
  Co  Co97  1  0.25070611  0.00277742  0.50021854  1
  Co  Co98  1  0.62263547  0.12421788  0.62605329  1
  Co  Co99  1  0.12688796  0.12262291  0.63011504  1
  Co  Co100  1  0.62499463  0.37944029  0.12690697  1
  Co  Co101  1  0.87371834  0.37192961  0.87610578  1
  Co  Co102  1  0.87831831  0.63098055  0.87521738  1
  Co  Co103  1  0.37231391  0.87220899  0.37818883  1
  Co  Co104  1  0.37297534  0.62478302  0.87910859  1
  Co  Co105  1  -0.00495801  0.24563917  0.25273047  1
  Co  Co106  1  0.49741410  -0.00424362  0.24878589  1
  Co  Co107  1  0.24992137  0.00160937  0.00401111  1
  Co  Co108  1  0.86983130  0.12196344  0.37876170  1
  Co  Co109  1  0.75015432  -0.00349194  0.74743622  1
  Co  Co110  1  0.37456750  0.86897354  0.12148692  1
  Co  Co111  1  0.37432308  0.62668167  0.62151289  1
  Co  Co112  1  0.00245432  0.75351904  0.00220092  1
  Co  Co113  1  -0.00246447  0.50227748  0.25038346  1
  Co  Co114  1  0.62695128  0.62516040  0.37215497  1
  Co  Co115  1  0.12465518  0.62365301  0.37440761  1
  Co  Co116  1  0.25206192  0.25275329  0.24926390  1
  Co  Co117  1  0.12934770  0.12230792  0.36789698  1
  Co  Co118  1  0.74901980  0.74938263  0.00056681  1
  Co  Co119  1  0.24447522  0.75068077  -0.00095601  1
  Co  Co120  1  -0.00445364  0.00038689  0.75215240  1
  Co  Co121  1  0.24321392  0.75116835  0.50162500  1
  Co  Co122  1  0.87457245  0.12344172  0.12175302  1
  Co  Co123  1  0.50360471  0.74988676  -0.00204734  1
  Co  Co124  1  0.25656480  -0.00179438  0.74973909  1
  Co  Co125  1  0.12337411  0.62330859  0.12390462  1
  Co  Co126  1  0.49608663  0.50616971  0.24994466  1
  Co  Co127  1  0.74891660  -0.00279763  0.00126735  1
