# generated using pymatgen
data_Fe45Co19
_symmetry_space_group_name_H-M   'P 1'
_cell_length_a   11.41590323
_cell_length_b   11.41466536
_cell_length_c   11.41498264
_cell_angle_alpha   89.99353318
_cell_angle_beta   89.99982857
_cell_angle_gamma   89.99617696
_symmetry_Int_Tables_number   1
_chemical_formula_structural   Fe45Co19
_chemical_formula_sum   'Fe90 Co38'
_cell_volume   1487.47170785
_cell_formula_units_Z   2
loop_
 _symmetry_equiv_pos_site_id
 _symmetry_equiv_pos_as_xyz
  1  'x, y, z'
loop_
 _atom_site_type_symbol
 _atom_site_label
 _atom_site_symmetry_multiplicity
 _atom_site_fract_x
 _atom_site_fract_y
 _atom_site_fract_z
 _atom_site_occupancy
  Fe  Fe0  1  0.25051038  0.24838443  0.75024092  1
  Fe  Fe1  1  0.00046164  0.50114042  -0.00027006  1
  Fe  Fe2  1  0.75257927  0.00390767  0.25390177  1
  Fe  Fe3  1  0.37688459  0.12218363  0.37543524  1
  Fe  Fe4  1  0.74965778  0.00039591  0.49651016  1
  Fe  Fe5  1  0.12546583  0.87479666  0.62370500  1
  Fe  Fe6  1  0.62594183  0.12372419  0.87575538  1
  Fe  Fe7  1  -0.00015142  0.00137755  0.74669892  1
  Fe  Fe8  1  0.74963966  0.49984591  -0.00005434  1
  Fe  Fe9  1  0.37697723  0.62484682  0.37538102  1
  Fe  Fe10  1  0.87391266  0.62974257  0.12519678  1
  Fe  Fe11  1  0.49768450  0.25314676  0.49769964  1
  Fe  Fe12  1  0.37508293  0.37650575  0.12523923  1
  Fe  Fe13  1  0.25033954  0.00075596  0.74890330  1
  Fe  Fe14  1  0.87514584  0.12674120  0.61916732  1
  Fe  Fe15  1  0.87426722  0.37456898  0.12461504  1
  Fe  Fe16  1  0.37450367  0.12219607  0.87760886  1
  Fe  Fe17  1  -0.00268330  0.00130754  0.25209900  1
  Fe  Fe18  1  0.50096643  0.25046825  0.00169745  1
  Fe  Fe19  1  0.62576085  0.12680469  0.12862371  1
  Fe  Fe20  1  0.12316571  0.12448383  0.37793650  1
  Fe  Fe21  1  0.12362658  0.87634606  0.37473062  1
  Fe  Fe22  1  0.87408803  0.37469902  0.62452457  1
  Fe  Fe23  1  0.75228963  0.50154535  0.75001760  1
  Fe  Fe24  1  0.74880936  -0.00332075  0.00131744  1
  Fe  Fe25  1  0.24674936  0.75209634  0.00102540  1
  Fe  Fe26  1  0.87647365  0.87171034  0.12831066  1
  Fe  Fe27  1  0.87295338  0.37245968  0.37519995  1
  Fe  Fe28  1  -0.00303781  0.24808780  0.25035524  1
  Fe  Fe29  1  0.49974028  -0.00232484  0.49825818  1
  Fe  Fe30  1  0.62364717  0.37552673  0.62767315  1
  Fe  Fe31  1  0.49989486  -0.00081066  0.74937518  1
  Fe  Fe32  1  0.87676686  0.87578176  0.87548503  1
  Fe  Fe33  1  0.37375703  0.37551857  0.87612190  1
  Fe  Fe34  1  -0.00057712  0.24963162  0.74956002  1
  Fe  Fe35  1  0.50148344  -0.00128858  0.00264292  1
  Fe  Fe36  1  0.00511819  0.00051029  0.00356247  1
  Fe  Fe37  1  0.24976039  0.74777807  0.74896863  1
  Fe  Fe38  1  0.50175059  0.50487825  0.24529720  1
  Fe  Fe39  1  0.24974096  0.50204639  0.24799027  1
  Fe  Fe40  1  0.25268957  0.25055525  0.25320123  1
  Fe  Fe41  1  -0.00009515  0.50274817  0.74921590  1
  Fe  Fe42  1  0.49984980  0.24854579  0.75110234  1
  Fe  Fe43  1  -0.00130110  0.50240122  0.25037302  1
  Fe  Fe44  1  0.25086932  -0.00224716  0.25138981  1
  Fe  Fe45  1  0.49671818  0.50265757  0.74986884  1
  Fe  Fe46  1  0.12456459  0.37662167  0.87474043  1
  Fe  Fe47  1  0.74748206  0.49947137  0.50042499  1
  Fe  Fe48  1  0.24942862  0.74879709  0.25133071  1
  Fe  Fe49  1  0.25059220  0.50313331  0.74808076  1
  Fe  Fe50  1  0.62413260  0.12418180  0.62234012  1
  Fe  Fe51  1  0.50021630  0.49931251  0.50172355  1
  Fe  Fe52  1  0.12602410  0.37572670  0.37411854  1
  Fe  Fe53  1  0.74651209  0.74909393  0.50058109  1
  Fe  Fe54  1  0.24748171  0.24862129  -0.00026939  1
  Fe  Fe55  1  0.12771006  0.37530514  0.62417512  1
  Fe  Fe56  1  0.74913670  0.50216373  0.24878708  1
  Fe  Fe57  1  -0.00093667  0.49853106  0.49985642  1
  Fe  Fe58  1  0.62406086  0.37234931  0.36918592  1
  Fe  Fe59  1  0.00069128  0.74722119  0.74888527  1
  Fe  Fe60  1  0.87338779  0.62654383  0.37625430  1
  Fe  Fe61  1  0.75033420  -0.00015591  0.74869583  1
  Fe  Fe62  1  0.12459873  0.87656404  0.87436909  1
  Fe  Fe63  1  0.87351239  0.87366969  0.62276300  1
  Fe  Fe64  1  0.12436095  0.37404198  0.12680092  1
  Fe  Fe65  1  0.75061710  0.24890852  0.74989189  1
  Fe  Fe66  1  0.00184551  0.24788558  0.00043466  1
  Fe  Fe67  1  0.74973980  0.25141300  0.00049722  1
  Fe  Fe68  1  0.12384187  0.62670790  0.12400592  1
  Fe  Fe69  1  0.25322681  0.49789494  0.50128712  1
  Fe  Fe70  1  0.50252074  0.74968324  0.50121521  1
  Fe  Fe71  1  0.87546620  0.12348651  0.87769265  1
  Fe  Fe72  1  0.62332792  0.87444370  0.37163539  1
  Fe  Fe73  1  0.00010659  0.75003718  0.49870017  1
  Fe  Fe74  1  0.62564454  0.87195522  0.12949226  1
  Fe  Fe75  1  0.50136378  0.74913272  0.00168530  1
  Fe  Fe76  1  0.50142421  0.50148797  0.00234333  1
  Fe  Fe77  1  0.62649022  0.62842951  0.87299882  1
  Fe  Fe78  1  0.12517901  0.62317399  0.37743985  1
  Fe  Fe79  1  0.37248964  0.62562448  0.87818049  1
  Fe  Fe80  1  0.87490130  0.62798521  0.87600817  1
  Fe  Fe81  1  0.37446322  0.12526949  0.62258594  1
  Fe  Fe82  1  0.37538043  0.87402304  0.62434878  1
  Fe  Fe83  1  0.62455857  0.87315585  0.87100100  1
  Fe  Fe84  1  0.37464647  0.87404709  0.12722761  1
  Fe  Fe85  1  0.37326187  0.12271255  0.12462913  1
  Fe  Fe86  1  0.25054051  0.75134872  0.49861497  1
  Fe  Fe87  1  0.62543307  0.37570851  0.87449911  1
  Fe  Fe88  1  0.12598668  0.12546214  0.61989684  1
  Fe  Fe89  1  0.37475462  0.87641075  0.87651501  1
  Co  Co90  1  0.00220786  0.74744568  0.25310291  1
  Co  Co91  1  0.24675067  -0.00049487  0.00161891  1
  Co  Co92  1  0.50021864  0.74548372  0.24819368  1
  Co  Co93  1  0.24792138  0.49819246  0.00267212  1
  Co  Co94  1  0.37221275  0.62626545  0.12341135  1
  Co  Co95  1  0.12495688  0.62469254  0.62094993  1
  Co  Co96  1  0.00233320  0.25494121  0.50004964  1
  Co  Co97  1  0.12378826  0.87427549  0.12865183  1
  Co  Co98  1  -0.00106987  -0.00345276  0.49976150  1
  Co  Co99  1  0.62225494  0.12762403  0.37330529  1
  Co  Co100  1  0.75417135  0.24639490  0.25036512  1
  Co  Co101  1  0.37815718  0.87234821  0.37302483  1
  Co  Co102  1  0.12664850  0.62430119  0.87673742  1
  Co  Co103  1  0.49773397  0.74992347  0.74948364  1
  Co  Co104  1  0.62518173  0.87602891  0.62583474  1
  Co  Co105  1  0.50018107  -0.00017022  0.24897524  1
  Co  Co106  1  0.62365904  0.62362429  0.37584257  1
  Co  Co107  1  0.87617369  0.37407376  0.87582129  1
  Co  Co108  1  0.87410947  0.87151856  0.37381921  1
  Co  Co109  1  0.00161210  0.75079547  -0.00040171  1
  Co  Co110  1  0.12684143  0.12527238  0.13026851  1
  Co  Co111  1  0.74617467  0.25206924  0.49984206  1
  Co  Co112  1  0.74834405  0.74795205  0.25273697  1
  Co  Co113  1  0.75209716  0.75098876  0.74864826  1
  Co  Co114  1  0.37538385  0.62680413  0.62210264  1
  Co  Co115  1  0.12418292  0.12301693  0.87342582  1
  Co  Co116  1  0.87435028  0.12322942  0.12128334  1
  Co  Co117  1  0.62494798  0.62402232  0.62822630  1
  Co  Co118  1  0.25291729  0.25173348  0.49611286  1
  Co  Co119  1  0.62960826  0.62781767  0.12295308  1
  Co  Co120  1  0.87738602  0.12828632  0.38139746  1
  Co  Co121  1  0.25105265  -0.00196149  0.49889254  1
  Co  Co122  1  0.37511795  0.37383727  0.62747472  1
  Co  Co123  1  0.49572405  0.24922769  0.24912701  1
  Co  Co124  1  0.37725347  0.38111384  0.37117422  1
  Co  Co125  1  0.87469405  0.62537641  0.62169679  1
  Co  Co126  1  0.75016875  0.75353299  -0.00161626  1
  Co  Co127  1  0.62617282  0.37343049  0.12770512  1
