# generated using pymatgen
data_Fe45Co19
_symmetry_space_group_name_H-M   'P 1'
_cell_length_a   11.41623249
_cell_length_b   11.41495744
_cell_length_c   11.41641955
_cell_angle_alpha   90.00664341
_cell_angle_beta   90.00076276
_cell_angle_gamma   89.99414848
_symmetry_Int_Tables_number   1
_chemical_formula_structural   Fe45Co19
_chemical_formula_sum   'Fe90 Co38'
_cell_volume   1487.73991974
_cell_formula_units_Z   2
loop_
 _symmetry_equiv_pos_site_id
 _symmetry_equiv_pos_as_xyz
  1  'x, y, z'
loop_
 _atom_site_type_symbol
 _atom_site_label
 _atom_site_symmetry_multiplicity
 _atom_site_fract_x
 _atom_site_fract_y
 _atom_site_fract_z
 _atom_site_occupancy
  Fe  Fe0  1  0.24945955  0.24899208  0.24978928  1
  Fe  Fe1  1  0.00237757  0.75033811  0.75191013  1
  Fe  Fe2  1  0.87607058  0.62305263  0.87447021  1
  Fe  Fe3  1  0.12596672  0.62568243  0.12123577  1
  Fe  Fe4  1  -0.00119730  -0.00353502  0.00433180  1
  Fe  Fe5  1  0.75006462  0.00100767  0.50213073  1
  Fe  Fe6  1  0.62447526  0.37200907  0.37875585  1
  Fe  Fe7  1  0.37461376  0.12201620  0.87424768  1
  Fe  Fe8  1  0.74569234  0.50174854  0.74908825  1
  Fe  Fe9  1  0.62298154  0.37377096  0.87366213  1
  Fe  Fe10  1  0.12695728  0.37575959  0.37558469  1
  Fe  Fe11  1  0.37612540  0.37648713  0.87198573  1
  Fe  Fe12  1  0.37677197  0.37208020  0.62656159  1
  Fe  Fe13  1  0.37847182  0.12344237  0.12635446  1
  Fe  Fe14  1  0.25278993  0.25097644  0.49843353  1
  Fe  Fe15  1  0.37358062  0.87951452  0.37243457  1
  Fe  Fe16  1  0.75013823  0.00200695  0.00258820  1
  Fe  Fe17  1  0.24685590  -0.00168192  0.74805703  1
  Fe  Fe18  1  0.25080223  0.50152032  0.75021554  1
  Fe  Fe19  1  0.25644895  0.75030651  -0.00217731  1
  Fe  Fe20  1  0.25222828  0.74785656  0.24807677  1
  Fe  Fe21  1  0.87304161  0.37604675  0.37420640  1
  Fe  Fe22  1  0.12687495  0.37584247  0.87475894  1
  Fe  Fe23  1  0.00119629  0.50121317  0.24847004  1
  Fe  Fe24  1  0.74959327  0.74690237  0.25032910  1
  Fe  Fe25  1  0.87423359  0.87323639  0.62705030  1
  Fe  Fe26  1  0.74737874  0.50070704  0.25022592  1
  Fe  Fe27  1  0.00092307  -0.00113378  0.50169982  1
  Fe  Fe28  1  0.50070522  0.00032855  0.49919984  1
  Fe  Fe29  1  0.87488093  0.37518174  0.87258649  1
  Fe  Fe30  1  0.37792124  0.62662455  0.62555063  1
  Fe  Fe31  1  0.25177567  0.75087394  0.75459969  1
  Fe  Fe32  1  0.12648231  0.12866192  0.62478541  1
  Fe  Fe33  1  -0.00001180  0.25045359  0.24994411  1
  Fe  Fe34  1  0.12718992  0.62679823  0.62393742  1
  Fe  Fe35  1  0.25018407  -0.00208732  0.00424810  1
  Fe  Fe36  1  0.62342305  0.36977128  0.62385737  1
  Fe  Fe37  1  0.75138129  0.74978852  0.49948021  1
  Fe  Fe38  1  0.37406444  0.12623417  0.62646563  1
  Fe  Fe39  1  0.62636555  0.87670001  0.37449982  1
  Fe  Fe40  1  -0.00129956  0.75099310  0.24993547  1
  Fe  Fe41  1  0.74969327  0.50029521  0.50137559  1
  Fe  Fe42  1  0.62514870  0.37271346  0.12442851  1
  Fe  Fe43  1  0.12694502  0.87829355  0.37340721  1
  Fe  Fe44  1  0.74983637  0.00533161  0.24614869  1
  Fe  Fe45  1  0.12592295  0.37591353  0.12411090  1
  Fe  Fe46  1  0.12549193  0.12426774  0.87550735  1
  Fe  Fe47  1  0.74949304  0.24725841  -0.00138296  1
  Fe  Fe48  1  0.25302970  0.49843496  0.49915422  1
  Fe  Fe49  1  0.49904502  0.75034824  0.24981511  1
  Fe  Fe50  1  0.61980122  0.62459333  0.12178758  1
  Fe  Fe51  1  0.37415876  0.12199745  0.37397574  1
  Fe  Fe52  1  0.37463788  0.87512743  0.62476851  1
  Fe  Fe53  1  0.25197511  0.24998090  0.00085116  1
  Fe  Fe54  1  0.00288037  0.49881283  0.74873919  1
  Fe  Fe55  1  0.00070544  0.25167589  -0.00168011  1
  Fe  Fe56  1  0.87431687  0.12860054  0.62759015  1
  Fe  Fe57  1  0.12477619  0.12328227  0.37518407  1
  Fe  Fe58  1  0.87439710  0.62395386  0.12405865  1
  Fe  Fe59  1  0.61694414  0.62610715  0.87536229  1
  Fe  Fe60  1  0.50187272  0.00089030  0.74856273  1
  Fe  Fe61  1  -0.00029514  0.75161148  -0.00081933  1
  Fe  Fe62  1  0.25266039  0.75138802  0.49793308  1
  Fe  Fe63  1  -0.00126070  0.75176631  0.49831079  1
  Fe  Fe64  1  0.37715800  0.62015194  0.37248196  1
  Fe  Fe65  1  0.87339927  0.87544315  0.87433315  1
  Fe  Fe66  1  -0.00168285  0.25337448  0.50310518  1
  Fe  Fe67  1  0.62402047  0.87450306  0.87380988  1
  Fe  Fe68  1  0.00277045  -0.00125752  0.74867711  1
  Fe  Fe69  1  0.87250299  0.87656821  0.37276825  1
  Fe  Fe70  1  0.74820069  0.50042647  -0.00147675  1
  Fe  Fe71  1  0.87463406  0.62534544  0.62531266  1
  Fe  Fe72  1  0.37600296  0.37822099  0.13035121  1
  Fe  Fe73  1  -0.00048398  0.49849373  0.50205027  1
  Fe  Fe74  1  0.87626238  0.12504597  0.87417693  1
  Fe  Fe75  1  0.49822145  0.25069103  -0.00222321  1
  Fe  Fe76  1  0.74836191  0.00145427  0.74998866  1
  Fe  Fe77  1  0.62503356  0.12986313  0.62336674  1
  Fe  Fe78  1  0.87305060  0.37424723  0.12507704  1
  Fe  Fe79  1  0.25293441  0.50114961  0.00037519  1
  Fe  Fe80  1  0.62283728  0.62521625  0.37825837  1
  Fe  Fe81  1  0.12260789  0.12414575  0.12535357  1
  Fe  Fe82  1  0.62486238  0.87431941  0.12585970  1
  Fe  Fe83  1  0.62054352  0.62927516  0.62365624  1
  Fe  Fe84  1  0.50194865  0.24839753  0.25333612  1
  Fe  Fe85  1  0.12464529  0.62429287  0.37653072  1
  Fe  Fe86  1  0.50047896  -0.00253659  0.00165682  1
  Fe  Fe87  1  0.74874684  0.74852045  -0.00224004  1
  Fe  Fe88  1  0.87456696  0.12564836  0.37438816  1
  Fe  Fe89  1  0.62462557  0.87156625  0.62506464  1
  Co  Co90  1  0.74878809  0.74792462  0.75205674  1
  Co  Co91  1  0.50213456  0.49854527  0.74624635  1
  Co  Co92  1  0.87097042  0.87185315  0.12561874  1
  Co  Co93  1  0.50257974  0.00092225  0.25128135  1
  Co  Co94  1  0.49536288  0.75389627  0.00019359  1
  Co  Co95  1  0.24928638  0.00021777  0.50237820  1
  Co  Co96  1  0.49722080  0.75265273  0.75182908  1
  Co  Co97  1  0.37550812  0.87656946  0.12844626  1
  Co  Co98  1  0.49969581  0.24758485  0.75312743  1
  Co  Co99  1  -0.00153667  -0.00119788  0.24795261  1
  Co  Co100  1  0.49933844  0.49576704  0.00053662  1
  Co  Co101  1  0.87505990  0.62320527  0.37527799  1
  Co  Co102  1  0.12613133  0.62411532  0.87688464  1
  Co  Co103  1  0.49853787  0.49873992  0.50116145  1
  Co  Co104  1  0.12642478  0.87125481  0.62393211  1
  Co  Co105  1  0.87152798  0.37584083  0.62868361  1
  Co  Co106  1  -0.00060794  0.49830667  0.00043472  1
  Co  Co107  1  0.25001823  0.24957459  0.75284441  1
  Co  Co108  1  0.62319188  0.12356254  0.87708388  1
  Co  Co109  1  0.38073855  0.62177812  0.87484781  1
  Co  Co110  1  0.37485367  0.37737175  0.37051617  1
  Co  Co111  1  0.24605919  0.50173790  0.24895508  1
  Co  Co112  1  0.62713527  0.12516419  0.37783018  1
  Co  Co113  1  0.37871499  0.62124215  0.12519333  1
  Co  Co114  1  0.12961423  0.37504224  0.62437173  1
  Co  Co115  1  0.62152575  0.12700291  0.12263550  1
  Co  Co116  1  0.12628421  0.87607635  0.87699472  1
  Co  Co117  1  0.87656262  0.12895131  0.12410028  1
  Co  Co118  1  0.50549415  0.49943366  0.25158720  1
  Co  Co119  1  0.74828910  0.24788096  0.24982187  1
  Co  Co120  1  0.49718875  0.75278527  0.49627452  1
  Co  Co121  1  0.24855084  0.00276178  0.24670905  1
  Co  Co122  1  0.00243831  0.25189384  0.74999656  1
  Co  Co123  1  0.49537211  0.24825965  0.49705553  1
  Co  Co124  1  0.12763417  0.87231269  0.12584783  1
  Co  Co125  1  0.75380958  0.25005817  0.49992097  1
  Co  Co126  1  0.74834701  0.24858496  0.75322960  1
  Co  Co127  1  0.37534980  0.88062749  0.87334724  1
