# generated using pymatgen
data_Fe45Co19
_symmetry_space_group_name_H-M   'P 1'
_cell_length_a   11.41547574
_cell_length_b   11.41451825
_cell_length_c   11.41326966
_cell_angle_alpha   90.00166366
_cell_angle_beta   90.00206508
_cell_angle_gamma   89.99586138
_symmetry_Int_Tables_number   1
_chemical_formula_structural   Fe45Co19
_chemical_formula_sum   'Fe90 Co38'
_cell_volume   1487.17364028
_cell_formula_units_Z   2
loop_
 _symmetry_equiv_pos_site_id
 _symmetry_equiv_pos_as_xyz
  1  'x, y, z'
loop_
 _atom_site_type_symbol
 _atom_site_label
 _atom_site_symmetry_multiplicity
 _atom_site_fract_x
 _atom_site_fract_y
 _atom_site_fract_z
 _atom_site_occupancy
  Fe  Fe0  1  0.74741268  0.74844020  0.25038695  1
  Fe  Fe1  1  0.00190659  0.74726580  -0.00350760  1
  Fe  Fe2  1  0.12462649  0.87607025  0.37671573  1
  Fe  Fe3  1  0.25150915  0.49918219  0.25213466  1
  Fe  Fe4  1  0.50047581  0.00316560  0.25001858  1
  Fe  Fe5  1  0.37561014  0.12416940  0.12204193  1
  Fe  Fe6  1  0.00470796  0.24734264  0.50269445  1
  Fe  Fe7  1  0.37648580  0.12579854  0.87652102  1
  Fe  Fe8  1  0.37647769  0.62484440  0.62549547  1
  Fe  Fe9  1  0.37378624  0.87629432  0.62388311  1
  Fe  Fe10  1  0.12979297  0.61860318  0.86966487  1
  Fe  Fe11  1  0.74968218  0.00293966  0.25254011  1
  Fe  Fe12  1  0.24999420  0.00076649  0.25069291  1
  Fe  Fe13  1  0.12435194  0.12536763  0.12407730  1
  Fe  Fe14  1  0.75202432  0.00219425  0.50191403  1
  Fe  Fe15  1  0.12456990  0.87727748  0.62632958  1
  Fe  Fe16  1  0.49919987  0.75149877  0.74942943  1
  Fe  Fe17  1  0.12523291  0.62240423  0.12492083  1
  Fe  Fe18  1  -0.00005704  -0.00000293  0.25106901  1
  Fe  Fe19  1  0.75367931  0.49744754  0.25499267  1
  Fe  Fe20  1  0.24825775  0.25174527  -0.00094776  1
  Fe  Fe21  1  0.87478631  0.62455781  0.12527245  1
  Fe  Fe22  1  0.87599042  0.12758678  0.37647533  1
  Fe  Fe23  1  0.74679914  0.25214986  0.00287241  1
  Fe  Fe24  1  0.12561956  0.87549881  0.87224551  1
  Fe  Fe25  1  0.87373365  0.87241452  0.87314589  1
  Fe  Fe26  1  0.49634716  0.49715435  0.25368315  1
  Fe  Fe27  1  0.62407406  0.37270725  0.37365820  1
  Fe  Fe28  1  0.62347336  0.12210113  0.87460475  1
  Fe  Fe29  1  0.37588439  0.37397845  0.12440422  1
  Fe  Fe30  1  0.87371715  0.62559584  0.62516263  1
  Fe  Fe31  1  0.62604452  0.87712816  0.87191426  1
  Fe  Fe32  1  0.24577128  0.24760147  0.50157434  1
  Fe  Fe33  1  0.25160320  0.74945754  0.25355475  1
  Fe  Fe34  1  0.87439459  0.37449543  0.62297683  1
  Fe  Fe35  1  -0.00245375  0.50200078  0.49784024  1
  Fe  Fe36  1  0.24817993  0.00377184  0.50003960  1
  Fe  Fe37  1  0.00122409  0.00049004  -0.00047013  1
  Fe  Fe38  1  0.87491584  0.87348981  0.12467649  1
  Fe  Fe39  1  0.49970751  0.00197734  0.50159054  1
  Fe  Fe40  1  0.49911134  0.75077764  0.49816758  1
  Fe  Fe41  1  0.87401471  0.12567284  0.12390653  1
  Fe  Fe42  1  0.74850088  0.24915755  0.74849762  1
  Fe  Fe43  1  -0.00213316  0.49832482  -0.00427574  1
  Fe  Fe44  1  0.49788497  0.49969104  -0.00105127  1
  Fe  Fe45  1  0.62462932  0.62107778  0.12662710  1
  Fe  Fe46  1  0.87439653  0.87295300  0.62652645  1
  Fe  Fe47  1  0.37516098  0.87513268  0.87660631  1
  Fe  Fe48  1  0.24952552  0.74748671  -0.00210082  1
  Fe  Fe49  1  0.74711333  0.74803547  0.50102585  1
  Fe  Fe50  1  0.62381717  0.62410937  0.87304116  1
  Fe  Fe51  1  0.25353882  0.50022450  0.49787364  1
  Fe  Fe52  1  0.12706993  0.62072008  0.62938803  1
  Fe  Fe53  1  0.12473053  0.37537107  0.37604325  1
  Fe  Fe54  1  0.87520405  0.87304794  0.37620575  1
  Fe  Fe55  1  -0.00421123  0.00115456  0.74830769  1
  Fe  Fe56  1  0.62650760  0.87631586  0.62807493  1
  Fe  Fe57  1  0.87304610  0.37567812  0.12275798  1
  Fe  Fe58  1  0.37597858  0.62648489  0.12698658  1
  Fe  Fe59  1  0.12555577  0.87427035  0.12395054  1
  Fe  Fe60  1  0.12496525  0.37737234  0.12195897  1
  Fe  Fe61  1  0.62542143  0.37657846  0.87455311  1
  Fe  Fe62  1  0.25056471  0.74883797  0.49898388  1
  Fe  Fe63  1  0.50132896  0.25025926  0.49983707  1
  Fe  Fe64  1  0.25035331  0.25061421  0.25030043  1
  Fe  Fe65  1  0.62445790  0.12392073  0.62602824  1
  Fe  Fe66  1  0.25363510  0.00183957  0.75038019  1
  Fe  Fe67  1  -0.00211531  0.49995597  0.25378731  1
  Fe  Fe68  1  0.24820952  0.25427920  0.74915218  1
  Fe  Fe69  1  0.00216437  0.74832275  0.50129000  1
  Fe  Fe70  1  0.50016807  0.24979479  0.74935901  1
  Fe  Fe71  1  0.74868352  0.74779408  -0.00005238  1
  Fe  Fe72  1  0.00286823  0.25669053  0.75017931  1
  Fe  Fe73  1  0.12393375  0.12677296  0.87381050  1
  Fe  Fe74  1  0.50094714  0.74958098  0.00060507  1
  Fe  Fe75  1  0.87360414  0.62438400  0.87177501  1
  Fe  Fe76  1  0.62300711  0.62244279  0.37715960  1
  Fe  Fe77  1  0.00079436  0.74820501  0.25171863  1
  Fe  Fe78  1  0.62369700  0.87695428  0.37514911  1
  Fe  Fe79  1  0.74835206  0.49993044  0.74614800  1
  Fe  Fe80  1  0.87596214  0.12918502  0.87523664  1
  Fe  Fe81  1  0.74799211  0.25032868  0.50014736  1
  Fe  Fe82  1  -0.00099660  0.25159016  0.24867836  1
  Fe  Fe83  1  0.49791796  0.49781919  0.74804600  1
  Fe  Fe84  1  0.37494807  0.87514041  0.12472369  1
  Fe  Fe85  1  0.50395887  0.25101590  0.00372805  1
  Fe  Fe86  1  0.37600386  0.37209342  0.62175988  1
  Fe  Fe87  1  0.37563939  0.12711322  0.37595782  1
  Fe  Fe88  1  0.62531616  0.87704121  0.12548730  1
  Fe  Fe89  1  0.75024877  0.00038584  -0.00174851  1
  Co  Co90  1  0.49747482  0.00044075  0.74843049  1
  Co  Co91  1  -0.00124732  0.00120864  0.50086232  1
  Co  Co92  1  0.50025283  0.24850844  0.24750478  1
  Co  Co93  1  0.50078224  -0.00124436  0.00039262  1
  Co  Co94  1  0.12790861  0.37954891  0.87743580  1
  Co  Co95  1  0.62446771  0.37345025  0.62558455  1
  Co  Co96  1  0.75045017  0.25104753  0.24902678  1
  Co  Co97  1  0.37769037  0.62549898  0.37582288  1
  Co  Co98  1  0.00246125  0.74807139  0.74960481  1
  Co  Co99  1  0.12597640  0.62458618  0.37480627  1
  Co  Co100  1  0.24835197  0.00055142  -0.00138216  1
  Co  Co101  1  0.12418389  0.12260202  0.63027872  1
  Co  Co102  1  0.50166525  0.75091711  0.25107328  1
  Co  Co103  1  0.37715700  0.37179951  0.87694137  1
  Co  Co104  1  0.12497068  0.38051251  0.62158287  1
  Co  Co105  1  0.87701066  0.37044822  0.37981162  1
  Co  Co106  1  0.62575116  0.37946457  0.12761206  1
  Co  Co107  1  0.37562829  0.87752859  0.37539774  1
  Co  Co108  1  0.12354962  0.12557046  0.37233364  1
  Co  Co109  1  0.00074144  0.25279928  -0.00032170  1
  Co  Co110  1  0.37497347  0.12809017  0.62470206  1
  Co  Co111  1  0.62490853  0.12718653  0.37658881  1
  Co  Co112  1  0.75274234  0.00317479  0.74879478  1
  Co  Co113  1  0.62677959  0.12310902  0.12504756  1
  Co  Co114  1  0.74987900  0.50066622  -0.00180399  1
  Co  Co115  1  0.50008256  0.49639918  0.50015488  1
  Co  Co116  1  -0.00325840  0.49550219  0.75090190  1
  Co  Co117  1  0.87295890  0.62856389  0.37634999  1
  Co  Co118  1  0.25052773  0.75125024  0.74886954  1
  Co  Co119  1  0.25674034  0.49329005  0.74877401  1
  Co  Co120  1  0.25527780  0.50070326  0.00041781  1
  Co  Co121  1  0.86959115  0.37301591  0.87432009  1
  Co  Co122  1  0.37395769  0.37032224  0.37718986  1
  Co  Co123  1  0.87630730  0.12978073  0.62471887  1
  Co  Co124  1  0.62112560  0.62510595  0.62378612  1
  Co  Co125  1  0.74792441  0.74713927  0.74933509  1
  Co  Co126  1  0.37448535  0.62577729  0.87164984  1
  Co  Co127  1  0.74875725  0.49871092  0.50041626  1
