# generated using pymatgen
data_Fe45Co19
_symmetry_space_group_name_H-M   'P 1'
_cell_length_a   11.41554201
_cell_length_b   11.41472399
_cell_length_c   11.41432114
_cell_angle_alpha   90.00025779
_cell_angle_beta   89.99186057
_cell_angle_gamma   89.99866394
_symmetry_Int_Tables_number   1
_chemical_formula_structural   Fe45Co19
_chemical_formula_sum   'Fe90 Co38'
_cell_volume   1487.34608197
_cell_formula_units_Z   2
loop_
 _symmetry_equiv_pos_site_id
 _symmetry_equiv_pos_as_xyz
  1  'x, y, z'
loop_
 _atom_site_type_symbol
 _atom_site_label
 _atom_site_symmetry_multiplicity
 _atom_site_fract_x
 _atom_site_fract_y
 _atom_site_fract_z
 _atom_site_occupancy
  Fe  Fe0  1  0.12571588  0.12401276  0.87621833  1
  Fe  Fe1  1  0.75125338  0.74791494  0.74918190  1
  Fe  Fe2  1  0.25026619  -0.00025862  0.50053984  1
  Fe  Fe3  1  0.74967596  0.24913511  0.50248932  1
  Fe  Fe4  1  0.25393614  0.00078637  0.00352749  1
  Fe  Fe5  1  0.24969061  0.50236379  0.74541639  1
  Fe  Fe6  1  0.50233672  0.50172268  -0.00357660  1
  Fe  Fe7  1  0.12083165  0.12518568  0.62500504  1
  Fe  Fe8  1  0.87612151  0.62659831  0.12361605  1
  Fe  Fe9  1  0.74912183  0.50245960  0.25105996  1
  Fe  Fe10  1  0.25035355  0.50056903  0.00001000  1
  Fe  Fe11  1  0.25081780  0.74881644  0.74559572  1
  Fe  Fe12  1  0.00042067  0.75098804  0.25271231  1
  Fe  Fe13  1  0.37376631  0.87605897  0.37399880  1
  Fe  Fe14  1  0.12467837  0.62777102  0.37943480  1
  Fe  Fe15  1  0.00071988  -0.00230031  0.00012002  1
  Fe  Fe16  1  0.74999604  0.00221424  0.50167262  1
  Fe  Fe17  1  0.50085115  -0.00059765  0.49947410  1
  Fe  Fe18  1  -0.00058514  0.50011334  -0.00119874  1
  Fe  Fe19  1  0.37715712  0.62435634  0.87214937  1
  Fe  Fe20  1  0.87611769  0.12595773  0.12693977  1
  Fe  Fe21  1  0.74913575  0.24826537  0.00232730  1
  Fe  Fe22  1  0.62848835  0.37755557  0.37482405  1
  Fe  Fe23  1  -0.00090723  0.25174790  0.49733293  1
  Fe  Fe24  1  0.74718086  -0.00029348  0.24794010  1
  Fe  Fe25  1  -0.00099772  -0.00210638  0.49688536  1
  Fe  Fe26  1  0.12633619  0.87477509  0.12593770  1
  Fe  Fe27  1  0.87797094  0.37660577  0.62551769  1
  Fe  Fe28  1  0.37358616  0.12653939  0.87535183  1
  Fe  Fe29  1  0.75168574  0.24725897  0.74753098  1
  Fe  Fe30  1  0.87331029  0.37448102  0.12779283  1
  Fe  Fe31  1  0.62147430  0.87738144  0.12132318  1
  Fe  Fe32  1  0.75113224  0.00148739  0.75014740  1
  Fe  Fe33  1  0.37821812  0.62436084  0.12667015  1
  Fe  Fe34  1  0.37170429  0.37203825  0.37914409  1
  Fe  Fe35  1  0.50032049  0.25263140  0.25233136  1
  Fe  Fe36  1  0.87576374  0.12552561  0.87487451  1
  Fe  Fe37  1  0.37440965  0.37364875  0.12379239  1
  Fe  Fe38  1  0.74800661  0.50436998  -0.00307081  1
  Fe  Fe39  1  0.12573270  0.87210351  0.62150170  1
  Fe  Fe40  1  0.87301186  0.12809151  0.37254048  1
  Fe  Fe41  1  0.50010161  0.25098505  0.74961797  1
  Fe  Fe42  1  0.87085227  0.87509482  0.37408073  1
  Fe  Fe43  1  0.12405589  0.62356520  0.12607295  1
  Fe  Fe44  1  0.50053582  0.25135662  -0.00276359  1
  Fe  Fe45  1  0.00053633  0.75062364  0.75134378  1
  Fe  Fe46  1  0.74934127  0.50250319  0.75192387  1
  Fe  Fe47  1  0.00121206  0.25079357  0.00053280  1
  Fe  Fe48  1  0.87458724  0.62280385  0.37776853  1
  Fe  Fe49  1  0.25186216  0.50010694  0.25087989  1
  Fe  Fe50  1  0.12829362  0.37297743  0.37368150  1
  Fe  Fe51  1  0.12595497  0.12559778  0.37257037  1
  Fe  Fe52  1  0.25083640  0.74894311  0.00177068  1
  Fe  Fe53  1  0.49977806  -0.00015595  0.75127248  1
  Fe  Fe54  1  0.37556663  0.12827795  0.37690318  1
  Fe  Fe55  1  0.25346561  0.00330650  0.24671870  1
  Fe  Fe56  1  0.50320843  0.75144921  0.25114917  1
  Fe  Fe57  1  0.62457684  0.37450897  0.62722081  1
  Fe  Fe58  1  0.62559141  0.87731924  0.62468195  1
  Fe  Fe59  1  0.25021832  0.74910139  0.25112263  1
  Fe  Fe60  1  0.37412160  0.37623208  0.87299178  1
  Fe  Fe61  1  0.37728557  0.12740551  0.62271950  1
  Fe  Fe62  1  0.49930136  0.75254319  0.50004475  1
  Fe  Fe63  1  -0.00009407  -0.00263353  0.75150238  1
  Fe  Fe64  1  0.74891905  0.74760514  0.50028986  1
  Fe  Fe65  1  0.24952871  0.50240935  0.50391003  1
  Fe  Fe66  1  0.12519506  0.37498080  0.87401071  1
  Fe  Fe67  1  0.62605107  0.87422690  0.87810642  1
  Fe  Fe68  1  0.49979600  0.49711706  0.50151421  1
  Fe  Fe69  1  0.49862118  0.75240957  0.74873423  1
  Fe  Fe70  1  0.87364107  0.87227386  0.12329831  1
  Fe  Fe71  1  0.00068321  -0.00062482  0.25020162  1
  Fe  Fe72  1  0.87438781  0.87638644  0.62390518  1
  Fe  Fe73  1  0.62171916  0.62405477  0.62552024  1
  Fe  Fe74  1  -0.00077270  0.49785866  0.25368699  1
  Fe  Fe75  1  0.87300249  0.87140997  0.87908371  1
  Fe  Fe76  1  0.12260662  0.37492368  0.62643304  1
  Fe  Fe77  1  0.62586676  0.12456316  0.87534473  1
  Fe  Fe78  1  0.37792707  0.62402487  0.37598445  1
  Fe  Fe79  1  0.25001968  -0.00004144  0.74717098  1
  Fe  Fe80  1  0.24935650  0.24987745  0.74824619  1
  Fe  Fe81  1  0.12681160  0.37373236  0.12615765  1
  Fe  Fe82  1  0.37270672  0.87369755  0.87499247  1
  Fe  Fe83  1  0.88019138  0.62191535  0.62324437  1
  Fe  Fe84  1  0.62496529  0.37817106  0.12460634  1
  Fe  Fe85  1  0.74565264  0.74858970  0.25023135  1
  Fe  Fe86  1  0.87402376  0.37482031  0.87414677  1
  Fe  Fe87  1  0.61988137  0.12189425  0.12357230  1
  Fe  Fe88  1  0.62486615  0.12417874  0.37502905  1
  Fe  Fe89  1  0.12429356  0.62571589  0.87519986  1
  Co  Co90  1  0.87650177  0.62755456  0.87704244  1
  Co  Co91  1  0.12968116  0.87536269  0.87531265  1
  Co  Co92  1  0.75167009  0.00128737  0.00027612  1
  Co  Co93  1  -0.00350843  0.75371140  0.49712748  1
  Co  Co94  1  0.37916537  0.62356108  0.62488205  1
  Co  Co95  1  0.74884557  0.50027346  0.50270577  1
  Co  Co96  1  0.74514126  0.74590855  0.00240107  1
  Co  Co97  1  0.87871373  0.12400339  0.62425860  1
  Co  Co98  1  0.12861117  0.87561046  0.37414759  1
  Co  Co99  1  0.37932563  0.12971709  0.12427666  1
  Co  Co100  1  0.24590658  0.24848866  0.50339239  1
  Co  Co101  1  0.49688208  0.49513881  0.25244396  1
  Co  Co102  1  0.62128290  0.62167269  0.12807412  1
  Co  Co103  1  0.00130824  0.50215510  0.75232011  1
  Co  Co104  1  0.12098121  0.62909014  0.62103683  1
  Co  Co105  1  0.24954214  0.25061710  -0.00125332  1
  Co  Co106  1  0.00134591  0.25197457  0.25108588  1
  Co  Co107  1  0.00163259  0.49560457  0.49634894  1
  Co  Co108  1  0.50112965  0.49686653  0.75044187  1
  Co  Co109  1  0.86939221  0.37335592  0.37350925  1
  Co  Co110  1  0.37479900  0.37300663  0.62432340  1
  Co  Co111  1  0.74481556  0.24847003  0.24713325  1
  Co  Co112  1  0.00000543  0.24927033  0.75150928  1
  Co  Co113  1  0.25189965  0.24815980  0.24784739  1
  Co  Co114  1  0.49977465  0.74830221  -0.00034359  1
  Co  Co115  1  0.25472013  0.74984701  0.50078942  1
  Co  Co116  1  0.00367794  0.75071717  0.00014945  1
  Co  Co117  1  0.37690400  0.87212083  0.12638127  1
  Co  Co118  1  0.49828047  0.00021501  0.25177383  1
  Co  Co119  1  0.62811486  0.37274578  0.87393027  1
  Co  Co120  1  0.62263823  0.12359729  0.62595570  1
  Co  Co121  1  0.62682854  0.87630586  0.37728515  1
  Co  Co122  1  0.62215861  0.62208893  0.37621715  1
  Co  Co123  1  0.62253140  0.62813344  0.87135520  1
  Co  Co124  1  0.49489775  -0.00053493  -0.00328761  1
  Co  Co125  1  0.12448547  0.12624110  0.12400250  1
  Co  Co126  1  0.50436549  0.25195223  0.49908726  1
  Co  Co127  1  0.37561473  0.87819513  0.62455064  1
