# generated using pymatgen
data_Fe45Co19
_symmetry_space_group_name_H-M   'P 1'
_cell_length_a   11.41517874
_cell_length_b   11.41528395
_cell_length_c   11.41344824
_cell_angle_alpha   89.99662273
_cell_angle_beta   90.00449074
_cell_angle_gamma   89.99555243
_symmetry_Int_Tables_number   1
_chemical_formula_structural   Fe45Co19
_chemical_formula_sum   'Fe90 Co38'
_cell_volume   1487.25797055
_cell_formula_units_Z   2
loop_
 _symmetry_equiv_pos_site_id
 _symmetry_equiv_pos_as_xyz
  1  'x, y, z'
loop_
 _atom_site_type_symbol
 _atom_site_label
 _atom_site_symmetry_multiplicity
 _atom_site_fract_x
 _atom_site_fract_y
 _atom_site_fract_z
 _atom_site_occupancy
  Fe  Fe0  1  0.63059657  0.87793635  0.37819705  1
  Fe  Fe1  1  -0.00226413  -0.00247761  0.49795546  1
  Fe  Fe2  1  0.75104507  -0.00102620  0.00049718  1
  Fe  Fe3  1  -0.00019451  -0.00453543  0.25398979  1
  Fe  Fe4  1  0.74718225  0.74817710  0.74721279  1
  Fe  Fe5  1  0.37508355  0.87369078  0.12466157  1
  Fe  Fe6  1  0.49806312  0.49972058  0.75123245  1
  Fe  Fe7  1  0.62375350  0.62115227  0.62449570  1
  Fe  Fe8  1  0.37130210  0.87235541  0.37460436  1
  Fe  Fe9  1  0.50433811  0.24874129  0.74829964  1
  Fe  Fe10  1  0.87430602  0.12771569  0.87313206  1
  Fe  Fe11  1  0.87546589  0.12485991  0.12710875  1
  Fe  Fe12  1  0.12780558  0.37507821  0.37370012  1
  Fe  Fe13  1  0.62786916  0.37556664  0.37547800  1
  Fe  Fe14  1  0.12788831  0.87781526  0.62460212  1
  Fe  Fe15  1  0.00486267  0.25160761  0.75408546  1
  Fe  Fe16  1  0.24971967  0.00048573  0.24833489  1
  Fe  Fe17  1  0.74857525  0.24785941  0.00094831  1
  Fe  Fe18  1  0.49798270  -0.00350650  -0.00431648  1
  Fe  Fe19  1  0.00111300  0.75315018  0.49891453  1
  Fe  Fe20  1  0.12327559  0.62274258  0.87605777  1
  Fe  Fe21  1  0.50251766  0.75159597  0.25063812  1
  Fe  Fe22  1  0.87491865  0.62898523  0.37531056  1
  Fe  Fe23  1  0.24761658  0.74935605  0.00220388  1
  Fe  Fe24  1  0.62471204  0.62448600  0.87427676  1
  Fe  Fe25  1  0.12453680  0.62474590  0.37493373  1
  Fe  Fe26  1  0.37440923  0.12759730  0.37485218  1
  Fe  Fe27  1  0.50031985  -0.00146480  0.25224961  1
  Fe  Fe28  1  0.12520918  0.12566052  0.37652919  1
  Fe  Fe29  1  0.37251197  0.37086839  0.87303545  1
  Fe  Fe30  1  0.62540579  0.62370789  0.37664137  1
  Fe  Fe31  1  0.00137477  0.25008536  -0.00252732  1
  Fe  Fe32  1  0.87287921  0.37365554  0.12617768  1
  Fe  Fe33  1  0.49869257  0.49920230  0.24977172  1
  Fe  Fe34  1  0.87762875  0.62658502  0.62537819  1
  Fe  Fe35  1  -0.00099339  0.49685678  0.49910776  1
  Fe  Fe36  1  0.75145841  0.00523590  0.74680571  1
  Fe  Fe37  1  0.12262389  0.12396450  0.62538472  1
  Fe  Fe38  1  0.25418893  0.50253972  -0.00130007  1
  Fe  Fe39  1  0.75201817  0.50046139  0.50152024  1
  Fe  Fe40  1  0.37386334  0.62835077  0.62783857  1
  Fe  Fe41  1  0.37191264  0.37293804  0.37317756  1
  Fe  Fe42  1  -0.00417800  0.49904334  0.75464576  1
  Fe  Fe43  1  0.25403809  0.00065580  0.50187243  1
  Fe  Fe44  1  0.87291921  0.37205354  0.62921134  1
  Fe  Fe45  1  -0.00226374  0.49963990  0.25070885  1
  Fe  Fe46  1  0.62670110  0.12214950  0.37726589  1
  Fe  Fe47  1  0.12822115  0.88069650  0.87905962  1
  Fe  Fe48  1  0.62358246  0.12147122  0.12419492  1
  Fe  Fe49  1  0.50156526  0.25143109  0.50124527  1
  Fe  Fe50  1  0.37404342  0.62713285  0.37412911  1
  Fe  Fe51  1  0.74762456  0.75193413  0.00030422  1
  Fe  Fe52  1  0.50074029  0.75270206  0.50172008  1
  Fe  Fe53  1  0.00211519  0.75296753  0.00019016  1
  Fe  Fe54  1  0.62724301  0.37861613  0.12589727  1
  Fe  Fe55  1  0.49629985  0.49841504  0.50048664  1
  Fe  Fe56  1  0.87651033  0.87394634  0.12767591  1
  Fe  Fe57  1  0.00395916  0.75245296  0.75129827  1
  Fe  Fe58  1  0.74804555  0.74994866  0.24887581  1
  Fe  Fe59  1  0.24654827  0.24570207  -0.00237008  1
  Fe  Fe60  1  0.50315121  0.75377972  -0.00213021  1
  Fe  Fe61  1  0.24454466  0.74970482  0.24430089  1
  Fe  Fe62  1  0.00205385  0.24999424  0.24988919  1
  Fe  Fe63  1  -0.00483706  0.49743089  -0.00373715  1
  Fe  Fe64  1  0.62338882  0.88023626  0.62408125  1
  Fe  Fe65  1  0.37179425  0.37305865  0.62767833  1
  Fe  Fe66  1  0.12557776  0.37705835  0.12312504  1
  Fe  Fe67  1  0.37434346  0.37311934  0.12425773  1
  Fe  Fe68  1  0.50294330  0.25057092  0.25010102  1
  Fe  Fe69  1  0.62221835  0.62237597  0.12343296  1
  Fe  Fe70  1  0.49509157  -0.00141425  0.75370995  1
  Fe  Fe71  1  0.87427647  0.12631474  0.37560571  1
  Fe  Fe72  1  0.25169739  0.50249551  0.24721748  1
  Fe  Fe73  1  0.87736008  0.62695763  0.12506023  1
  Fe  Fe74  1  0.37829690  0.12655561  0.12404253  1
  Fe  Fe75  1  0.87164723  0.87253645  0.87317222  1
  Fe  Fe76  1  0.63044116  0.37536906  0.87039543  1
  Fe  Fe77  1  0.12263821  0.11959465  0.12156514  1
  Fe  Fe78  1  0.50435177  0.25295989  -0.00077047  1
  Fe  Fe79  1  0.74847654  0.24543602  0.50688636  1
  Fe  Fe80  1  0.25512011  0.00343874  0.75263562  1
  Fe  Fe81  1  0.24866673  0.74890330  0.50311615  1
  Fe  Fe82  1  0.87411949  0.87391374  0.62432607  1
  Fe  Fe83  1  0.37669155  0.63034141  0.87346687  1
  Fe  Fe84  1  0.24832091  0.24968330  0.50257855  1
  Fe  Fe85  1  0.12423411  0.62174297  0.62601646  1
  Fe  Fe86  1  0.12768528  0.37773416  0.62808143  1
  Fe  Fe87  1  0.75290025  0.50125037  -0.00334049  1
  Fe  Fe88  1  -0.00146690  -0.00195584  0.75200421  1
  Fe  Fe89  1  0.87171960  0.37131437  0.37435995  1
  Co  Co90  1  0.87597435  0.63183932  0.87532239  1
  Co  Co91  1  0.37251360  0.86875320  0.87386904  1
  Co  Co92  1  0.86905703  0.36837927  0.87200159  1
  Co  Co93  1  -0.00783716  -0.00049748  -0.00231314  1
  Co  Co94  1  0.00382117  0.75313623  0.25053173  1
  Co  Co95  1  0.74799376  0.74922020  0.50421964  1
  Co  Co96  1  0.12434744  0.88181404  0.12060089  1
  Co  Co97  1  0.75394028  0.50508350  0.75129399  1
  Co  Co98  1  0.24573552  0.24448790  0.75184525  1
  Co  Co99  1  0.62344140  0.87725289  0.12535392  1
  Co  Co100  1  0.25261886  0.50326639  0.75254310  1
  Co  Co101  1  0.37791862  0.12740905  0.62435001  1
  Co  Co102  1  0.24765152  0.24702741  0.24626764  1
  Co  Co103  1  0.74733252  0.24776753  0.24854895  1
  Co  Co104  1  0.12062818  0.62086857  0.12303182  1
  Co  Co105  1  0.37916405  0.13092719  0.87600545  1
  Co  Co106  1  0.00189218  0.25355674  0.49993041  1
  Co  Co107  1  0.75530480  0.00435887  0.50496375  1
  Co  Co108  1  0.25775292  0.00284909  -0.00212605  1
  Co  Co109  1  0.75112663  0.50276108  0.25023763  1
  Co  Co110  1  0.75081366  -0.00038378  0.24797188  1
  Co  Co111  1  0.61604114  0.11776520  0.62299384  1
  Co  Co112  1  0.87003969  0.87284872  0.37614685  1
  Co  Co113  1  0.12837327  0.37893703  0.87602767  1
  Co  Co114  1  0.49868067  0.49704370  -0.00408669  1
  Co  Co115  1  0.37397101  0.87199159  0.62753652  1
  Co  Co116  1  0.38030858  0.62740273  0.12356516  1
  Co  Co117  1  0.88422025  0.12773907  0.62639855  1
  Co  Co118  1  0.25170214  0.50046927  0.50035928  1
  Co  Co119  1  0.74514920  0.24199696  0.74406524  1
  Co  Co120  1  0.12224065  0.11853702  0.87581993  1
  Co  Co121  1  0.49409869  -0.00366700  0.49645222  1
  Co  Co122  1  0.12920523  0.87461114  0.37721799  1
  Co  Co123  1  0.62437639  0.12264554  0.87638820  1
  Co  Co124  1  0.24341165  0.75005897  0.75092480  1
  Co  Co125  1  0.62817245  0.87778188  0.87143979  1
  Co  Co126  1  0.62696513  0.37881000  0.62721692  1
  Co  Co127  1  0.50511582  0.75116829  0.74834677  1
