# generated using pymatgen
data_Fe45Co19
_symmetry_space_group_name_H-M   'P 1'
_cell_length_a   11.41587159
_cell_length_b   11.41477205
_cell_length_c   11.41505251
_cell_angle_alpha   89.99363491
_cell_angle_beta   89.99464359
_cell_angle_gamma   89.99385647
_symmetry_Int_Tables_number   1
_chemical_formula_structural   Fe45Co19
_chemical_formula_sum   'Fe90 Co38'
_cell_volume   1487.49058135
_cell_formula_units_Z   2
loop_
 _symmetry_equiv_pos_site_id
 _symmetry_equiv_pos_as_xyz
  1  'x, y, z'
loop_
 _atom_site_type_symbol
 _atom_site_label
 _atom_site_symmetry_multiplicity
 _atom_site_fract_x
 _atom_site_fract_y
 _atom_site_fract_z
 _atom_site_occupancy
  Fe  Fe0  1  0.24963391  0.74877267  0.24931230  1
  Fe  Fe1  1  0.24858578  0.00155249  -0.00382432  1
  Fe  Fe2  1  0.87129350  0.12335496  0.62520450  1
  Fe  Fe3  1  0.49940731  0.74758827  0.24791982  1
  Fe  Fe4  1  -0.00101896  0.50099832  0.25074488  1
  Fe  Fe5  1  0.37734069  0.37421275  0.37645689  1
  Fe  Fe6  1  0.25296535  0.24701220  0.75156415  1
  Fe  Fe7  1  0.49870597  0.50045878  0.74922981  1
  Fe  Fe8  1  0.87365016  0.37629978  0.12433687  1
  Fe  Fe9  1  0.49965562  0.00181678  0.24613171  1
  Fe  Fe10  1  0.25076704  0.00215560  0.25160268  1
  Fe  Fe11  1  0.37435724  0.12645661  0.12115233  1
  Fe  Fe12  1  0.25112583  0.50039249  0.25218655  1
  Fe  Fe13  1  0.37740122  0.87526084  0.87733146  1
  Fe  Fe14  1  -0.00181615  0.49914512  0.50306271  1
  Fe  Fe15  1  -0.00003498  0.74855480  0.24926092  1
  Fe  Fe16  1  0.11841749  0.37180909  0.87022775  1
  Fe  Fe17  1  0.12521192  0.12567268  0.12511860  1
  Fe  Fe18  1  0.12558172  0.87581969  0.37549632  1
  Fe  Fe19  1  0.74508704  0.00169487  0.49776911  1
  Fe  Fe20  1  0.00345540  0.50033005  -0.00142408  1
  Fe  Fe21  1  0.12497422  0.37538234  0.12695948  1
  Fe  Fe22  1  0.37421151  0.87745646  0.62426988  1
  Fe  Fe23  1  0.50098550  0.74958573  0.75123140  1
  Fe  Fe24  1  0.00319901  0.74883957  0.00043908  1
  Fe  Fe25  1  0.00021848  0.00340816  -0.00229878  1
  Fe  Fe26  1  0.87487724  0.62406856  0.87570687  1
  Fe  Fe27  1  0.24701072  0.25015120  -0.00340859  1
  Fe  Fe28  1  0.62781527  0.37383078  0.12872678  1
  Fe  Fe29  1  0.87426844  0.87589672  0.12348652  1
  Fe  Fe30  1  0.12665443  0.11958970  0.62990240  1
  Fe  Fe31  1  0.86991634  0.62724932  0.62357926  1
  Fe  Fe32  1  0.12440663  0.87660745  0.12560667  1
  Fe  Fe33  1  0.74980190  0.25014807  0.75518298  1
  Fe  Fe34  1  0.25103337  0.49998789  0.49953052  1
  Fe  Fe35  1  0.36948288  0.62473551  0.11956290  1
  Fe  Fe36  1  0.37321161  0.37498209  0.12299542  1
  Fe  Fe37  1  0.75045744  0.00230808  0.24903612  1
  Fe  Fe38  1  0.37855265  0.37287149  0.87379297  1
  Fe  Fe39  1  0.75097198  0.00086568  0.75438073  1
  Fe  Fe40  1  -0.00318079  0.24864684  0.25012466  1
  Fe  Fe41  1  0.37653743  0.87610865  0.37598055  1
  Fe  Fe42  1  0.12369141  0.87688217  0.87080014  1
  Fe  Fe43  1  0.37882084  0.12369364  0.37709345  1
  Fe  Fe44  1  0.25062080  0.49883792  0.75169370  1
  Fe  Fe45  1  0.25075580  0.75067189  0.50011959  1
  Fe  Fe46  1  0.24882088  0.24732690  0.50024876  1
  Fe  Fe47  1  0.50243877  0.25084315  -0.00031714  1
  Fe  Fe48  1  0.75107103  0.74944789  0.24967267  1
  Fe  Fe49  1  0.00094355  0.24805606  0.50223254  1
  Fe  Fe50  1  0.75096193  0.25314342  -0.00512918  1
  Fe  Fe51  1  0.87347123  0.87585669  0.87766070  1
  Fe  Fe52  1  0.75181890  0.49801164  0.75212770  1
  Fe  Fe53  1  0.87451686  0.62340158  0.12253532  1
  Fe  Fe54  1  0.62313210  0.87668718  0.37161861  1
  Fe  Fe55  1  0.12569554  0.37562179  0.62670897  1
  Fe  Fe56  1  0.62674982  0.62188743  0.37691364  1
  Fe  Fe57  1  0.62746770  0.12755151  0.12565348  1
  Fe  Fe58  1  0.87463017  0.37299179  0.62726522  1
  Fe  Fe59  1  0.50106465  0.49796360  0.50162850  1
  Fe  Fe60  1  0.62789708  0.62641194  0.62525098  1
  Fe  Fe61  1  0.74685703  0.24966648  0.49627062  1
  Fe  Fe62  1  0.50350862  0.24978341  0.50127093  1
  Fe  Fe63  1  0.37270815  0.62594666  0.87856050  1
  Fe  Fe64  1  0.49916678  0.50011162  0.24875548  1
  Fe  Fe65  1  0.62619830  0.87401157  0.87845717  1
  Fe  Fe66  1  0.62768962  0.62547625  0.12155027  1
  Fe  Fe67  1  0.12552105  0.62574756  0.62667838  1
  Fe  Fe68  1  0.12372720  0.37330339  0.37518456  1
  Fe  Fe69  1  0.37435575  0.87343609  0.12294772  1
  Fe  Fe70  1  0.50102201  0.49923824  0.00027858  1
  Fe  Fe71  1  -0.00304297  0.75303219  0.74663615  1
  Fe  Fe72  1  -0.00131609  0.75343453  0.50337957  1
  Fe  Fe73  1  0.37486087  0.62471607  0.62459227  1
  Fe  Fe74  1  0.87472248  0.87711013  0.37632428  1
  Fe  Fe75  1  0.62394077  0.37342439  0.62887496  1
  Fe  Fe76  1  0.50123219  0.00237642  0.75012094  1
  Fe  Fe77  1  0.12389619  0.62528332  0.37578698  1
  Fe  Fe78  1  0.50351072  -0.00046139  0.00203766  1
  Fe  Fe79  1  0.87205729  0.62372968  0.37826503  1
  Fe  Fe80  1  0.62675559  0.62490437  0.87655524  1
  Fe  Fe81  1  0.25166851  0.75200176  0.75102239  1
  Fe  Fe82  1  0.25166525  0.24838813  0.25139349  1
  Fe  Fe83  1  0.87364923  0.12583256  0.12179972  1
  Fe  Fe84  1  -0.00076527  0.00268168  0.25078270  1
  Fe  Fe85  1  0.37651882  0.12309813  0.62454841  1
  Fe  Fe86  1  0.50130097  0.75099201  0.50049875  1
  Fe  Fe87  1  0.62785181  0.87401093  0.62697899  1
  Fe  Fe88  1  0.87250694  0.37576659  0.37498785  1
  Fe  Fe89  1  0.00207460  -0.00092257  0.50345931  1
  Co  Co90  1  0.12787238  0.62287164  0.12476460  1
  Co  Co91  1  0.74903914  0.49522143  0.50301929  1
  Co  Co92  1  0.24578558  0.49498139  -0.00530662  1
  Co  Co93  1  -0.00119973  0.24576344  0.74464119  1
  Co  Co94  1  0.62682885  0.87354781  0.12553704  1
  Co  Co95  1  0.74997690  0.50200522  0.24885555  1
  Co  Co96  1  0.12471976  0.62718347  0.87132215  1
  Co  Co97  1  0.50107149  0.74997328  0.00077010  1
  Co  Co98  1  0.87765456  0.12724174  0.87522053  1
  Co  Co99  1  0.75090320  0.75102751  0.75305774  1
  Co  Co100  1  0.37987255  0.12567758  0.87828468  1
  Co  Co101  1  -0.00547172  -0.00235883  0.74809812  1
  Co  Co102  1  0.75012094  0.49577606  -0.00341320  1
  Co  Co103  1  0.62072963  0.37555211  0.87217426  1
  Co  Co104  1  0.75394398  0.24710724  0.25298856  1
  Co  Co105  1  -0.00240131  0.50310318  0.74659823  1
  Co  Co106  1  0.62378206  0.12525698  0.87585119  1
  Co  Co107  1  0.49900566  0.24674116  0.74855001  1
  Co  Co108  1  0.74741069  0.75303138  0.49712423  1
  Co  Co109  1  0.75136667  0.75052357  0.00126004  1
  Co  Co110  1  0.50404081  -0.00036741  0.50313796  1
  Co  Co111  1  0.37659490  0.62468167  0.37643503  1
  Co  Co112  1  0.62499648  0.37537604  0.37087811  1
  Co  Co113  1  0.62812498  0.12606606  0.62792232  1
  Co  Co114  1  0.49726327  0.24986461  0.24859315  1
  Co  Co115  1  0.88177940  0.37403658  0.87334201  1
  Co  Co116  1  0.37464894  0.37370039  0.62502581  1
  Co  Co117  1  0.24581966  0.75372339  -0.00115547  1
  Co  Co118  1  0.12236704  0.12578264  0.37332285  1
  Co  Co119  1  0.24892685  0.00152659  0.49784941  1
  Co  Co120  1  0.74904757  0.00136703  0.00001200  1
  Co  Co121  1  0.62180561  0.12541551  0.37124265  1
  Co  Co122  1  0.12054428  0.12541752  0.87196078  1
  Co  Co123  1  0.12932179  0.87706517  0.62765581  1
  Co  Co124  1  0.00053986  0.25002892  0.00301985  1
  Co  Co125  1  0.25447485  0.00196802  0.75470441  1
  Co  Co126  1  0.86852131  0.87737486  0.62254173  1
  Co  Co127  1  0.87658034  0.12325756  0.37868858  1
