# generated using pymatgen
data_Fe45Co19
_symmetry_space_group_name_H-M   'P 1'
_cell_length_a   11.42277899
_cell_length_b   11.42266891
_cell_length_c   11.42293251
_cell_angle_alpha   90.00547421
_cell_angle_beta   90.00088063
_cell_angle_gamma   89.99474507
_symmetry_Int_Tables_number   1
_chemical_formula_structural   Fe45Co19
_chemical_formula_sum   'Fe90 Co38'
_cell_volume   1490.44848319
_cell_formula_units_Z   2
loop_
 _symmetry_equiv_pos_site_id
 _symmetry_equiv_pos_as_xyz
  1  'x, y, z'
loop_
 _atom_site_type_symbol
 _atom_site_label
 _atom_site_symmetry_multiplicity
 _atom_site_fract_x
 _atom_site_fract_y
 _atom_site_fract_z
 _atom_site_occupancy
  Fe  Fe0  1  0.25155225  0.25110268  0.24641163  1
  Fe  Fe1  1  0.62529515  0.62688892  0.87385036  1
  Fe  Fe2  1  0.62362448  0.87266587  0.62690002  1
  Fe  Fe3  1  0.62475127  0.37244270  0.87347451  1
  Fe  Fe4  1  0.00313459  0.50111189  0.00118294  1
  Fe  Fe5  1  0.24794455  0.50242018  0.00231633  1
  Fe  Fe6  1  0.49675756  -0.00196317  0.24615393  1
  Fe  Fe7  1  0.87538216  0.12549431  0.12546515  1
  Fe  Fe8  1  0.25081210  0.75005832  0.75160746  1
  Fe  Fe9  1  0.00110600  0.49879297  0.50012800  1
  Fe  Fe10  1  0.12637839  0.87535044  0.12369793  1
  Fe  Fe11  1  0.74850147  0.00159770  0.00083288  1
  Fe  Fe12  1  0.87683932  0.12537019  0.62577247  1
  Fe  Fe13  1  0.24977514  0.74702451  -0.00054069  1
  Fe  Fe14  1  0.74819549  0.00060351  0.49976669  1
  Fe  Fe15  1  0.37500974  0.37219144  0.87743240  1
  Fe  Fe16  1  0.49930160  0.74973169  -0.00009425  1
  Fe  Fe17  1  0.49705897  0.75162315  0.49755400  1
  Fe  Fe18  1  0.62252308  0.62475116  0.12753888  1
  Fe  Fe19  1  0.74966803  0.50105271  0.74980271  1
  Fe  Fe20  1  0.00023114  0.25278880  0.24860573  1
  Fe  Fe21  1  0.24974347  0.24544130  0.00118180  1
  Fe  Fe22  1  0.75050189  0.00102400  0.24852746  1
  Fe  Fe23  1  0.62318556  0.87677577  0.37394649  1
  Fe  Fe24  1  0.37579071  0.62551915  0.62578338  1
  Fe  Fe25  1  0.49849684  0.00035709  0.50089822  1
  Fe  Fe26  1  0.24823633  0.24869730  0.50159694  1
  Fe  Fe27  1  0.12707707  0.37293376  0.87556809  1
  Fe  Fe28  1  0.12805510  0.62263659  0.37373354  1
  Fe  Fe29  1  0.25311946  0.75115118  0.25119891  1
  Fe  Fe30  1  0.87492364  0.62472990  0.12496305  1
  Fe  Fe31  1  0.61979218  0.12672180  0.87620604  1
  Fe  Fe32  1  0.12259476  0.12557959  0.62904359  1
  Fe  Fe33  1  0.25241765  0.00026357  0.24761188  1
  Fe  Fe34  1  0.50168708  0.49812957  0.00013861  1
  Fe  Fe35  1  -0.00018497  0.75105435  0.25059906  1
  Fe  Fe36  1  0.25146172  0.00497467  0.00079275  1
  Fe  Fe37  1  0.00214505  0.24766539  0.00084316  1
  Fe  Fe38  1  0.62679899  0.37361062  0.12642373  1
  Fe  Fe39  1  0.62541810  0.87443744  0.12392353  1
  Fe  Fe40  1  0.25270720  0.74955937  0.49839419  1
  Fe  Fe41  1  0.87341712  0.62335929  0.37546054  1
  Fe  Fe42  1  0.62612289  0.37407984  0.62558940  1
  Fe  Fe43  1  0.37725946  0.62320027  0.12829558  1
  Fe  Fe44  1  0.87776513  0.12468770  0.87423735  1
  Fe  Fe45  1  0.00052730  0.49804288  0.75087361  1
  Fe  Fe46  1  0.62395641  0.12653665  0.62583413  1
  Fe  Fe47  1  0.00124112  0.74981116  0.49800643  1
  Fe  Fe48  1  0.37347710  0.37300645  0.62458330  1
  Fe  Fe49  1  0.49966619  0.49868967  0.75076868  1
  Fe  Fe50  1  0.62307540  0.12644847  0.37127457  1
  Fe  Fe51  1  0.62438559  0.62681230  0.62363663  1
  Fe  Fe52  1  0.25356805  0.00451032  0.75120000  1
  Fe  Fe53  1  0.87354604  0.62574583  0.62294572  1
  Fe  Fe54  1  0.87377026  0.37400847  0.87720510  1
  Fe  Fe55  1  0.12525907  0.12471196  0.37216762  1
  Fe  Fe56  1  0.74900909  0.49800028  0.24993903  1
  Fe  Fe57  1  0.12863703  0.37691022  0.37534892  1
  Fe  Fe58  1  0.00213511  0.49811667  0.24744811  1
  Fe  Fe59  1  0.00154753  0.74965780  0.00099515  1
  Fe  Fe60  1  0.37503713  0.12562923  0.37431862  1
  Fe  Fe61  1  0.87437954  0.87478860  0.87808847  1
  Fe  Fe62  1  0.74987836  0.75075535  0.25050160  1
  Fe  Fe63  1  0.25064672  0.00208511  0.50093816  1
  Fe  Fe64  1  0.12650251  0.87656078  0.62499552  1
  Fe  Fe65  1  0.37531149  0.87612565  0.87641949  1
  Fe  Fe66  1  0.12620916  0.87727171  0.37552753  1
  Fe  Fe67  1  0.87358100  0.37379960  0.62572798  1
  Fe  Fe68  1  0.24975728  0.49815902  0.75004624  1
  Fe  Fe69  1  0.49961323  0.25085594  0.49894765  1
  Fe  Fe70  1  0.62328711  0.62439533  0.37435851  1
  Fe  Fe71  1  0.87471645  0.87532957  0.62257546  1
  Fe  Fe72  1  0.37491017  0.62313563  0.87515654  1
  Fe  Fe73  1  0.87497905  0.87677566  0.37650713  1
  Fe  Fe74  1  0.00191411  0.25043361  0.49979918  1
  Fe  Fe75  1  0.74810549  0.50031622  0.00073014  1
  Fe  Fe76  1  0.75001710  0.00098615  0.75099254  1
  Fe  Fe77  1  0.49868566  0.49744474  0.49651431  1
  Fe  Fe78  1  0.87453895  0.62566998  0.87626703  1
  Fe  Fe79  1  0.00042764  0.75167073  0.75091108  1
  Fe  Fe80  1  0.12569120  0.62393807  0.62578941  1
  Fe  Fe81  1  0.74947245  0.24906943  0.49911321  1
  Fe  Fe82  1  -0.00024702  -0.00119584  0.24841740  1
  Fe  Fe83  1  0.87324806  0.37513078  0.37506807  1
  Fe  Fe84  1  0.62431011  0.87323757  0.87420322  1
  Fe  Fe85  1  0.87586265  0.12495656  0.37504200  1
  Fe  Fe86  1  0.74826466  0.24812501  0.00075969  1
  Fe  Fe87  1  0.49725274  0.00128658  0.74958999  1
  Fe  Fe88  1  0.12561173  0.87845845  0.87655434  1
  Fe  Fe89  1  0.49726259  0.25385895  0.24818368  1
  Co  Co90  1  0.12628788  0.37549908  0.62508457  1
  Co  Co91  1  0.25270105  0.50141136  0.50203162  1
  Co  Co92  1  0.74823229  0.74886740  0.00133375  1
  Co  Co93  1  0.36982308  0.37376357  0.37596205  1
  Co  Co94  1  0.74844816  0.49883214  0.49993604  1
  Co  Co95  1  0.12412133  0.12441666  0.12802537  1
  Co  Co96  1  0.87479084  0.37547104  0.12184234  1
  Co  Co97  1  0.87438383  0.87441227  0.12351914  1
  Co  Co98  1  0.00183608  0.00176626  0.49967733  1
  Co  Co99  1  0.37253474  0.87304189  0.12119203  1
  Co  Co100  1  0.37587558  0.12706163  0.62248383  1
  Co  Co101  1  0.49838933  0.75344431  0.25031103  1
  Co  Co102  1  0.37565771  0.62280134  0.37132944  1
  Co  Co103  1  0.12603691  0.37352060  0.12223556  1
  Co  Co104  1  0.50000680  0.49350733  0.25252969  1
  Co  Co105  1  0.25150963  0.24768113  0.75094392  1
  Co  Co106  1  0.00036917  0.00150137  0.00257745  1
  Co  Co107  1  0.37329231  0.37729007  0.12114830  1
  Co  Co108  1  0.12264354  0.12404436  0.87247421  1
  Co  Co109  1  0.74838415  0.75173950  0.49755581  1
  Co  Co110  1  0.12483439  0.62445321  0.87275465  1
  Co  Co111  1  0.00048112  0.25307493  0.75116512  1
  Co  Co112  1  0.75178158  0.74987178  0.74962260  1
  Co  Co113  1  0.12550388  0.62743507  0.12802241  1
  Co  Co114  1  0.37441276  0.87506470  0.62597427  1
  Co  Co115  1  0.62736552  0.37170517  0.37434369  1
  Co  Co116  1  0.49723967  0.74906795  0.75213399  1
  Co  Co117  1  0.25006277  0.49780807  0.24718968  1
  Co  Co118  1  0.74984131  0.24778602  0.75147566  1
  Co  Co119  1  -0.00157981  -0.00285951  0.75043988  1
  Co  Co120  1  0.50122325  0.25290405  0.00441766  1
  Co  Co121  1  0.49815277  0.25076658  0.74832487  1
  Co  Co122  1  0.75227746  0.24968330  0.24856902  1
  Co  Co123  1  0.37463341  0.87889921  0.37610234  1
  Co  Co124  1  0.37876824  0.12578424  0.12396848  1
  Co  Co125  1  0.50025582  -0.00261466  0.00176143  1
  Co  Co126  1  0.38092152  0.12799685  0.87765959  1
  Co  Co127  1  0.62309643  0.12534691  0.12679360  1
