# generated using pymatgen
data_Fe45Co19
_symmetry_space_group_name_H-M   'P 1'
_cell_length_a   11.41566098
_cell_length_b   11.41557503
_cell_length_c   11.41638793
_cell_angle_alpha   89.99506014
_cell_angle_beta   89.99648506
_cell_angle_gamma   89.99810932
_symmetry_Int_Tables_number   1
_chemical_formula_structural   Fe45Co19
_chemical_formula_sum   'Fe90 Co38'
_cell_volume   1487.74181820
_cell_formula_units_Z   2
loop_
 _symmetry_equiv_pos_site_id
 _symmetry_equiv_pos_as_xyz
  1  'x, y, z'
loop_
 _atom_site_type_symbol
 _atom_site_label
 _atom_site_symmetry_multiplicity
 _atom_site_fract_x
 _atom_site_fract_y
 _atom_site_fract_z
 _atom_site_occupancy
  Fe  Fe0  1  0.24937712  0.50190538  0.25044207  1
  Fe  Fe1  1  0.50037075  0.74918706  0.24870672  1
  Fe  Fe2  1  0.25105371  0.25179763  0.50107558  1
  Fe  Fe3  1  0.75194215  0.50099443  0.25006100  1
  Fe  Fe4  1  0.75196354  0.75124790  0.49598478  1
  Fe  Fe5  1  0.00054938  0.00047621  0.24795340  1
  Fe  Fe6  1  0.87724414  0.37441477  0.87451214  1
  Fe  Fe7  1  0.49650953  0.24985165  0.00179451  1
  Fe  Fe8  1  0.87509960  0.62707448  0.62523756  1
  Fe  Fe9  1  0.12522098  0.11971437  0.62147473  1
  Fe  Fe10  1  0.62686833  0.87443338  0.62498175  1
  Fe  Fe11  1  0.49780987  0.49691788  0.25008447  1
  Fe  Fe12  1  0.74913388  0.50062216  0.75287633  1
  Fe  Fe13  1  0.87743367  0.12436599  0.87353534  1
  Fe  Fe14  1  0.62262865  0.37402846  0.87333371  1
  Fe  Fe15  1  0.49805193  -0.00089584  0.24904878  1
  Fe  Fe16  1  0.25271684  0.50177118  0.00061052  1
  Fe  Fe17  1  0.12327796  0.62436961  0.87392390  1
  Fe  Fe18  1  0.62327433  0.62409896  0.88003680  1
  Fe  Fe19  1  0.12956334  0.62902059  0.12404278  1
  Fe  Fe20  1  0.62545636  0.87438808  0.37353399  1
  Fe  Fe21  1  0.00102591  0.24868380  0.00098853  1
  Fe  Fe22  1  0.24861266  0.24997909  0.25027191  1
  Fe  Fe23  1  0.62313686  0.12667995  0.37403297  1
  Fe  Fe24  1  0.87813730  0.12598621  0.37544852  1
  Fe  Fe25  1  0.87580481  0.62610931  0.87715425  1
  Fe  Fe26  1  0.24825578  0.75039835  0.75069919  1
  Fe  Fe27  1  0.25267441  0.24844589  0.00025835  1
  Fe  Fe28  1  0.12192275  0.87856893  0.87975084  1
  Fe  Fe29  1  0.12178851  0.37711618  0.37476379  1
  Fe  Fe30  1  0.62384669  0.12592825  0.12625378  1
  Fe  Fe31  1  0.87725538  0.37431084  0.12596026  1
  Fe  Fe32  1  0.62298746  0.87569632  0.87538209  1
  Fe  Fe33  1  0.75032830  -0.00033438  0.25092354  1
  Fe  Fe34  1  0.12809430  0.12281994  0.12328031  1
  Fe  Fe35  1  0.37226840  0.87563893  0.62366503  1
  Fe  Fe36  1  0.12015862  0.62246635  0.37841587  1
  Fe  Fe37  1  0.00053704  0.74846031  0.24935816  1
  Fe  Fe38  1  0.25282037  0.24770127  0.74719982  1
  Fe  Fe39  1  0.50026397  0.74862429  0.74872324  1
  Fe  Fe40  1  0.87244609  0.62710591  0.12311463  1
  Fe  Fe41  1  0.87529010  0.37430323  0.62753845  1
  Fe  Fe42  1  0.74968653  0.75110446  0.75389913  1
  Fe  Fe43  1  0.62332974  0.37577504  0.62784541  1
  Fe  Fe44  1  0.62559816  0.62405885  0.37452571  1
  Fe  Fe45  1  0.12580047  0.37521965  0.12436579  1
  Fe  Fe46  1  0.62403060  0.62365565  0.12206232  1
  Fe  Fe47  1  0.12241785  0.12405717  0.37771607  1
  Fe  Fe48  1  0.37603579  0.87518119  0.87507238  1
  Fe  Fe49  1  0.37551989  0.87277061  0.37594608  1
  Fe  Fe50  1  0.25056338  0.50232080  0.74925348  1
  Fe  Fe51  1  0.62276695  0.12645859  0.87477167  1
  Fe  Fe52  1  0.87535755  0.87196104  0.12422391  1
  Fe  Fe53  1  0.49802812  0.25515320  0.49959832  1
  Fe  Fe54  1  0.00058670  0.50126122  0.00205640  1
  Fe  Fe55  1  0.12656032  0.37741790  0.62538380  1
  Fe  Fe56  1  0.75124384  -0.00141371  0.49768294  1
  Fe  Fe57  1  0.37520966  0.62173368  0.62308614  1
  Fe  Fe58  1  0.00029420  0.50030918  0.74819800  1
  Fe  Fe59  1  0.75076312  0.00008654  0.75156341  1
  Fe  Fe60  1  0.24858583  0.74793876  0.49930699  1
  Fe  Fe61  1  0.37761991  0.62597295  0.87790754  1
  Fe  Fe62  1  0.12366244  0.87577373  0.37582220  1
  Fe  Fe63  1  0.25015131  -0.00163656  0.25129353  1
  Fe  Fe64  1  0.88065021  0.37647364  0.37244473  1
  Fe  Fe65  1  0.75149648  -0.00081077  -0.00101993  1
  Fe  Fe66  1  0.62480223  0.12719605  0.62436328  1
  Fe  Fe67  1  0.00290715  0.24829674  0.74822422  1
  Fe  Fe68  1  0.62661385  0.87422245  0.12517068  1
  Fe  Fe69  1  0.62571690  0.62386842  0.62333865  1
  Fe  Fe70  1  0.12513812  0.12274839  0.87666894  1
  Fe  Fe71  1  0.36923790  0.86944804  0.12559049  1
  Fe  Fe72  1  0.37602318  0.62283398  0.37574630  1
  Fe  Fe73  1  0.87366036  0.12716206  0.12553972  1
  Fe  Fe74  1  0.75009021  0.25054124  0.25158327  1
  Fe  Fe75  1  0.37554826  0.37460483  0.87263558  1
  Fe  Fe76  1  0.00121156  0.75486196  0.74855325  1
  Fe  Fe77  1  0.49967041  -0.00098908  0.49998701  1
  Fe  Fe78  1  0.50058176  0.74940485  0.50063893  1
  Fe  Fe79  1  0.25066518  0.00079841  0.75055023  1
  Fe  Fe80  1  0.75061263  0.25139862  -0.00201081  1
  Fe  Fe81  1  0.37677295  0.12738024  0.37371486  1
  Fe  Fe82  1  0.75163862  0.25223484  0.49957056  1
  Fe  Fe83  1  0.87614878  0.12338313  0.62508221  1
  Fe  Fe84  1  0.12595330  0.37512724  0.87547592  1
  Fe  Fe85  1  0.49842996  0.00258614  0.74740144  1
  Fe  Fe86  1  0.75177894  0.49925610  0.49846310  1
  Fe  Fe87  1  0.62506825  0.37494076  0.12528400  1
  Fe  Fe88  1  0.49577567  -0.00018925  0.00264712  1
  Fe  Fe89  1  -0.00168141  0.75375561  0.50230245  1
  Co  Co90  1  0.00100344  -0.00226821  0.74774723  1
  Co  Co91  1  0.49675543  0.49717811  0.00128468  1
  Co  Co92  1  0.87063266  0.87533858  0.62686258  1
  Co  Co93  1  0.49964904  0.75205193  0.00165021  1
  Co  Co94  1  0.24829547  0.74815961  0.25630840  1
  Co  Co95  1  0.25252224  -0.00164967  0.00175113  1
  Co  Co96  1  0.49592896  0.24788828  0.74787182  1
  Co  Co97  1  0.50158112  0.49721401  0.49711245  1
  Co  Co98  1  0.37064334  0.37595425  0.37392916  1
  Co  Co99  1  0.87506003  0.87393397  0.37026336  1
  Co  Co100  1  0.74769094  0.75162032  -0.00150597  1
  Co  Co101  1  -0.00103831  0.49863927  0.50419969  1
  Co  Co102  1  0.00299798  0.24770452  0.24804123  1
  Co  Co103  1  0.37464831  0.12420484  0.87596798  1
  Co  Co104  1  0.37459850  0.12327367  0.62148289  1
  Co  Co105  1  0.12686173  0.87257916  0.12502132  1
  Co  Co106  1  0.62776485  0.37506021  0.37327082  1
  Co  Co107  1  0.37358854  0.62755839  0.12561086  1
  Co  Co108  1  0.87775081  0.87523857  0.87738687  1
  Co  Co109  1  0.50007617  0.25288297  0.25037424  1
  Co  Co110  1  0.12379711  0.62624000  0.62598563  1
  Co  Co111  1  -0.00323524  -0.00406975  0.50006661  1
  Co  Co112  1  0.50089431  0.50338135  0.75123727  1
  Co  Co113  1  0.74814775  0.74782214  0.24980947  1
  Co  Co114  1  0.00116034  0.25138058  0.50222301  1
  Co  Co115  1  0.75108673  0.49761767  -0.00090757  1
  Co  Co116  1  0.87748313  0.62400091  0.37564256  1
  Co  Co117  1  0.24720044  0.50063312  0.49970435  1
  Co  Co118  1  0.37213055  0.37432759  0.12741232  1
  Co  Co119  1  -0.00161351  0.00185165  0.00481435  1
  Co  Co120  1  0.12983453  0.87778243  0.62233495  1
  Co  Co121  1  0.00240484  0.74779009  0.00045399  1
  Co  Co122  1  0.25234785  0.00020115  0.49509970  1
  Co  Co123  1  0.37538602  0.38021972  0.62628991  1
  Co  Co124  1  0.24846713  0.74978976  -0.00480107  1
  Co  Co125  1  0.37401366  0.12582591  0.12835588  1
  Co  Co126  1  0.00152468  0.50329176  0.24510440  1
  Co  Co127  1  0.75043287  0.24918323  0.75058149  1
