# generated using pymatgen
data_Fe45Co19
_symmetry_space_group_name_H-M   'P 1'
_cell_length_a   11.41408408
_cell_length_b   11.41413353
_cell_length_c   11.41526271
_cell_angle_alpha   90.00005196
_cell_angle_beta   90.00466538
_cell_angle_gamma   90.01032662
_symmetry_Int_Tables_number   1
_chemical_formula_structural   Fe45Co19
_chemical_formula_sum   'Fe90 Co38'
_cell_volume   1487.20185431
_cell_formula_units_Z   2
loop_
 _symmetry_equiv_pos_site_id
 _symmetry_equiv_pos_as_xyz
  1  'x, y, z'
loop_
 _atom_site_type_symbol
 _atom_site_label
 _atom_site_symmetry_multiplicity
 _atom_site_fract_x
 _atom_site_fract_y
 _atom_site_fract_z
 _atom_site_occupancy
  Fe  Fe0  1  0.00081669  0.49809184  0.74999261  1
  Fe  Fe1  1  0.12567500  0.87785647  0.12252031  1
  Fe  Fe2  1  0.12792826  0.37349560  0.87339490  1
  Fe  Fe3  1  0.37649108  0.12404776  0.12388681  1
  Fe  Fe4  1  0.49842983  0.49869918  0.50375792  1
  Fe  Fe5  1  0.12733485  0.37200916  0.62735885  1
  Fe  Fe6  1  0.75012227  0.74984267  -0.00271500  1
  Fe  Fe7  1  0.25079759  0.00159709  0.50059378  1
  Fe  Fe8  1  0.25098745  0.75170195  0.00014786  1
  Fe  Fe9  1  0.75217771  0.00413726  0.00176415  1
  Fe  Fe10  1  0.37840073  0.12319562  0.37553992  1
  Fe  Fe11  1  -0.00316214  0.24678789  -0.00249416  1
  Fe  Fe12  1  0.87499736  0.62621455  0.62572909  1
  Fe  Fe13  1  0.87503166  0.37024948  0.62688012  1
  Fe  Fe14  1  0.25200478  0.24446497  -0.00244946  1
  Fe  Fe15  1  0.74662069  0.00198443  0.25114515  1
  Fe  Fe16  1  0.87644334  0.12445879  0.37473360  1
  Fe  Fe17  1  0.62438695  0.37306135  0.37722677  1
  Fe  Fe18  1  0.37219597  0.87954050  0.87408588  1
  Fe  Fe19  1  0.38017378  0.62770371  0.37617143  1
  Fe  Fe20  1  0.12333264  0.62509194  0.12534311  1
  Fe  Fe21  1  0.87537528  0.62465743  0.12641108  1
  Fe  Fe22  1  -0.00087778  -0.00120608  0.49848142  1
  Fe  Fe23  1  0.87428683  0.37433170  0.37465085  1
  Fe  Fe24  1  0.74911714  0.24562626  0.50157262  1
  Fe  Fe25  1  0.37440467  0.37333602  0.12406810  1
  Fe  Fe26  1  0.74595061  0.75055033  0.25384250  1
  Fe  Fe27  1  0.87150819  0.37350886  0.87257336  1
  Fe  Fe28  1  0.62359541  0.12434159  0.87502436  1
  Fe  Fe29  1  0.37685850  0.62646448  0.12472228  1
  Fe  Fe30  1  0.74712162  0.24695963  0.25009069  1
  Fe  Fe31  1  0.50303064  -0.00222562  0.24643221  1
  Fe  Fe32  1  0.50114328  0.50021370  0.24990821  1
  Fe  Fe33  1  0.62467576  0.62638536  0.12284621  1
  Fe  Fe34  1  0.12750365  0.37510910  0.37591863  1
  Fe  Fe35  1  0.62388474  0.62751499  0.62596673  1
  Fe  Fe36  1  0.00110535  0.75568295  0.74893173  1
  Fe  Fe37  1  0.50151545  0.75522278  -0.00036240  1
  Fe  Fe38  1  0.74758965  0.75030961  0.49668544  1
  Fe  Fe39  1  0.74767713  0.00374122  0.50089479  1
  Fe  Fe40  1  0.49950656  0.24898464  0.75183797  1
  Fe  Fe41  1  0.74906419  0.75031510  0.75185049  1
  Fe  Fe42  1  0.25355832  0.75025572  0.50220767  1
  Fe  Fe43  1  -0.00095672  0.49857068  0.50080413  1
  Fe  Fe44  1  0.25249197  0.24793126  0.50164777  1
  Fe  Fe45  1  0.25259075  0.75156988  0.24970862  1
  Fe  Fe46  1  0.12441290  0.62717831  0.87408886  1
  Fe  Fe47  1  0.37669169  0.62683243  0.87132913  1
  Fe  Fe48  1  0.24974605  -0.00027156  0.25088074  1
  Fe  Fe49  1  0.50060135  0.49825029  0.74986187  1
  Fe  Fe50  1  0.37852889  0.12402997  0.62715527  1
  Fe  Fe51  1  0.74922233  0.00535361  0.74545336  1
  Fe  Fe52  1  0.12452691  0.62494151  0.37614735  1
  Fe  Fe53  1  0.37097930  0.37288182  0.87174928  1
  Fe  Fe54  1  0.50375690  -0.00233053  0.50466893  1
  Fe  Fe55  1  0.12526322  0.87463434  0.37822161  1
  Fe  Fe56  1  0.50034993  0.49799941  -0.00372394  1
  Fe  Fe57  1  0.12484772  0.37438247  0.12438160  1
  Fe  Fe58  1  0.00214132  0.24861629  0.25288678  1
  Fe  Fe59  1  0.87326175  0.87936681  0.87313185  1
  Fe  Fe60  1  0.50042366  -0.00180680  0.00072063  1
  Fe  Fe61  1  0.25381823  0.50065615  0.50421475  1
  Fe  Fe62  1  0.62406058  0.37238081  0.12229147  1
  Fe  Fe63  1  0.24884477  0.75370490  0.74815397  1
  Fe  Fe64  1  0.12070572  0.11984239  0.87506719  1
  Fe  Fe65  1  0.87598763  0.62375947  0.37488845  1
  Fe  Fe66  1  0.11948184  0.12532250  0.62356854  1
  Fe  Fe67  1  0.12233357  0.12197672  0.12480771  1
  Fe  Fe68  1  0.50152832  0.75789152  0.74814099  1
  Fe  Fe69  1  -0.00064369  0.49956355  -0.00088074  1
  Fe  Fe70  1  0.87598870  0.62437429  0.87311783  1
  Fe  Fe71  1  0.74796279  0.50030577  0.25063564  1
  Fe  Fe72  1  0.87372833  0.87542106  0.62227920  1
  Fe  Fe73  1  0.37463484  0.37368415  0.37558952  1
  Fe  Fe74  1  0.62435137  0.37005426  0.62526898  1
  Fe  Fe75  1  -0.00068280  0.75294868  0.25242046  1
  Fe  Fe76  1  -0.00191303  0.75425141  -0.00125684  1
  Fe  Fe77  1  0.37946747  0.87444300  0.37569196  1
  Fe  Fe78  1  0.74889487  0.49990820  0.50143923  1
  Fe  Fe79  1  0.24763968  0.00089179  0.74859167  1
  Fe  Fe80  1  0.74819660  0.50088346  -0.00264532  1
  Fe  Fe81  1  0.87562521  0.37386198  0.12600303  1
  Fe  Fe82  1  0.25085808  0.50154577  -0.00167809  1
  Fe  Fe83  1  0.50087147  0.24894299  0.25032258  1
  Fe  Fe84  1  0.25073777  0.50120148  0.24952004  1
  Fe  Fe85  1  0.87346417  0.87754335  0.12854342  1
  Fe  Fe86  1  0.25049238  0.24673315  0.25047581  1
  Fe  Fe87  1  0.12459351  0.62675475  0.62496890  1
  Fe  Fe88  1  0.74673838  0.49968943  0.75046848  1
  Fe  Fe89  1  0.75117884  0.24658409  -0.00059997  1
  Co  Co90  1  0.12657788  0.87844549  0.87743755  1
  Co  Co91  1  0.25189851  0.00289345  0.00006889  1
  Co  Co92  1  0.62201988  0.87698817  0.37592831  1
  Co  Co93  1  0.00031330  0.49900393  0.25113953  1
  Co  Co94  1  0.87537760  0.12292569  0.87054466  1
  Co  Co95  1  0.24957779  0.50286461  0.74942266  1
  Co  Co96  1  0.00027200  -0.00454621  0.74762199  1
  Co  Co97  1  0.88069761  0.12665390  0.62435896  1
  Co  Co98  1  0.50133835  0.75358796  0.50479680  1
  Co  Co99  1  0.62128744  0.62433981  0.37771743  1
  Co  Co100  1  0.12564311  0.12472392  0.37734515  1
  Co  Co101  1  0.49737857  0.25018402  -0.00258272  1
  Co  Co102  1  -0.00213009  0.75012372  0.49966471  1
  Co  Co103  1  0.37911326  0.12042438  0.87296393  1
  Co  Co104  1  0.62943258  0.87501869  0.12355043  1
  Co  Co105  1  0.87755192  0.12494635  0.12979445  1
  Co  Co106  1  0.49739796  0.25015840  0.50008431  1
  Co  Co107  1  0.37723405  0.62755071  0.62820488  1
  Co  Co108  1  0.62689218  0.37106953  0.87417427  1
  Co  Co109  1  0.12527620  0.87609567  0.62069626  1
  Co  Co110  1  0.87303051  0.87769805  0.37619843  1
  Co  Co111  1  0.37294669  0.37164493  0.62966000  1
  Co  Co112  1  0.62048075  0.12806877  0.62553420  1
  Co  Co113  1  0.24887954  0.24182915  0.75037808  1
  Co  Co114  1  0.74924840  0.24538983  0.74855689  1
  Co  Co115  1  0.00006828  0.25022428  0.75300544  1
  Co  Co116  1  0.62281715  0.12623076  0.12256322  1
  Co  Co117  1  0.50248590  0.75178639  0.24710208  1
  Co  Co118  1  0.62910462  0.87919335  0.87534564  1
  Co  Co119  1  0.37233275  0.87839960  0.62495330  1
  Co  Co120  1  -0.00524454  -0.00093448  0.00028284  1
  Co  Co121  1  0.50294535  -0.00377440  0.74818813  1
  Co  Co122  1  0.37364800  0.87676203  0.12460528  1
  Co  Co123  1  0.62237509  0.62763456  0.87355229  1
  Co  Co124  1  0.00038641  0.25163200  0.49741348  1
  Co  Co125  1  0.63072577  0.87458921  0.62506399  1
  Co  Co126  1  0.00262584  -0.00155945  0.25271118  1
  Co  Co127  1  0.62138613  0.12417002  0.37626181  1
