# generated using pymatgen
data_Fe45Co19
_symmetry_space_group_name_H-M   'P 1'
_cell_length_a   11.41498757
_cell_length_b   11.41575066
_cell_length_c   11.41639334
_cell_angle_alpha   89.99977466
_cell_angle_beta   89.99551718
_cell_angle_gamma   89.99139125
_symmetry_Int_Tables_number   1
_chemical_formula_structural   Fe45Co19
_chemical_formula_sum   'Fe90 Co38'
_cell_volume   1487.67763686
_cell_formula_units_Z   2
loop_
 _symmetry_equiv_pos_site_id
 _symmetry_equiv_pos_as_xyz
  1  'x, y, z'
loop_
 _atom_site_type_symbol
 _atom_site_label
 _atom_site_symmetry_multiplicity
 _atom_site_fract_x
 _atom_site_fract_y
 _atom_site_fract_z
 _atom_site_occupancy
  Fe  Fe0  1  -0.00073589  0.75156771  0.25024307  1
  Fe  Fe1  1  0.37331536  0.37543618  0.12879298  1
  Fe  Fe2  1  0.62611893  0.12672256  0.62417236  1
  Fe  Fe3  1  0.62588621  0.87535417  0.87545588  1
  Fe  Fe4  1  0.74647199  0.75146106  0.74937020  1
  Fe  Fe5  1  0.49954683  -0.00008204  0.00095472  1
  Fe  Fe6  1  0.75159672  0.49960807  0.24996168  1
  Fe  Fe7  1  0.12368047  0.88323968  0.12507093  1
  Fe  Fe8  1  0.37549104  0.87341604  0.87381465  1
  Fe  Fe9  1  0.87321366  0.87392801  0.12534513  1
  Fe  Fe10  1  0.25032867  0.75474994  0.24764669  1
  Fe  Fe11  1  0.74927339  0.49477822  0.74791295  1
  Fe  Fe12  1  0.74871115  -0.00129157  0.25267765  1
  Fe  Fe13  1  0.12465172  0.62348320  0.62455665  1
  Fe  Fe14  1  0.50096188  0.00069117  0.25182355  1
  Fe  Fe15  1  0.87213574  0.62821118  0.87507287  1
  Fe  Fe16  1  0.25386700  -0.00150035  0.49966258  1
  Fe  Fe17  1  0.24896506  0.25066610  0.49704421  1
  Fe  Fe18  1  0.62410181  0.37536669  0.37555116  1
  Fe  Fe19  1  0.74784635  0.74976704  0.49841569  1
  Fe  Fe20  1  -0.00162587  0.00172729  0.50016810  1
  Fe  Fe21  1  0.37448937  0.62720860  0.12627579  1
  Fe  Fe22  1  0.87411053  0.12359376  0.12516852  1
  Fe  Fe23  1  0.87410744  0.87623651  0.62625281  1
  Fe  Fe24  1  0.37489956  0.37455564  0.87675992  1
  Fe  Fe25  1  0.12601701  0.87682202  0.62746835  1
  Fe  Fe26  1  0.12370652  0.37524296  0.37448557  1
  Fe  Fe27  1  0.87414351  0.12763292  0.37464218  1
  Fe  Fe28  1  0.74951789  0.50170802  0.00172899  1
  Fe  Fe29  1  0.37181241  0.12305681  0.12670732  1
  Fe  Fe30  1  0.12670487  0.12066348  0.87647331  1
  Fe  Fe31  1  0.87470234  0.87421111  0.37616092  1
  Fe  Fe32  1  0.38127706  0.87095898  0.37616294  1
  Fe  Fe33  1  0.00163404  0.24592929  0.00234569  1
  Fe  Fe34  1  0.62162638  0.87604855  0.62076199  1
  Fe  Fe35  1  0.74882230  0.25136685  0.24822967  1
  Fe  Fe36  1  0.00093549  0.50180894  0.24981539  1
  Fe  Fe37  1  0.62405844  0.62196779  0.62603000  1
  Fe  Fe38  1  0.49930173  0.25051678  0.00305771  1
  Fe  Fe39  1  0.12436408  0.37636190  0.87871841  1
  Fe  Fe40  1  0.62633180  0.12415662  0.12448702  1
  Fe  Fe41  1  0.37599659  0.37384537  0.62315391  1
  Fe  Fe42  1  0.37537169  0.62730844  0.62812022  1
  Fe  Fe43  1  0.00075404  0.74952120  0.50069284  1
  Fe  Fe44  1  0.75278161  0.25460973  0.50096276  1
  Fe  Fe45  1  0.87389511  0.62851304  0.12402461  1
  Fe  Fe46  1  0.50118736  0.24899117  0.25011420  1
  Fe  Fe47  1  0.24756417  0.24865304  0.00496108  1
  Fe  Fe48  1  0.00073507  0.24822965  0.75004076  1
  Fe  Fe49  1  0.12333840  0.87790619  0.37453391  1
  Fe  Fe50  1  0.62336829  0.37718992  0.12473984  1
  Fe  Fe51  1  -0.00053866  0.50124398  0.75276867  1
  Fe  Fe52  1  0.87844295  0.37419374  0.12452852  1
  Fe  Fe53  1  -0.00078989  0.75325649  -0.00107347  1
  Fe  Fe54  1  0.75129905  -0.00174530  -0.00035843  1
  Fe  Fe55  1  0.37478559  0.12648111  0.87483118  1
  Fe  Fe56  1  0.25136130  0.49995229  0.00223469  1
  Fe  Fe57  1  0.49657367  0.50335385  0.49687311  1
  Fe  Fe58  1  0.50079535  0.00096444  0.74951908  1
  Fe  Fe59  1  0.25123523  0.50014795  0.49772605  1
  Fe  Fe60  1  0.49839871  0.50446346  0.25257895  1
  Fe  Fe61  1  0.12494732  0.87911094  0.87287995  1
  Fe  Fe62  1  0.37517765  0.12649330  0.62617888  1
  Fe  Fe63  1  0.49974051  0.24878418  0.49734430  1
  Fe  Fe64  1  0.50251667  0.25273613  0.75009242  1
  Fe  Fe65  1  0.87609021  0.62396869  0.62483212  1
  Fe  Fe66  1  0.87053941  0.12461484  0.87211455  1
  Fe  Fe67  1  0.12563820  0.62466647  0.87697579  1
  Fe  Fe68  1  0.00109947  0.75042781  0.74944822  1
  Fe  Fe69  1  0.37711859  0.62489314  0.87313742  1
  Fe  Fe70  1  0.62382098  0.37593789  0.87838387  1
  Fe  Fe71  1  0.87477979  0.62546550  0.37565691  1
  Fe  Fe72  1  0.24822927  0.25119868  0.74968034  1
  Fe  Fe73  1  0.75450341  0.49581955  0.49997403  1
  Fe  Fe74  1  0.37347469  0.12674793  0.37297367  1
  Fe  Fe75  1  0.62691139  0.12713318  0.87603600  1
  Fe  Fe76  1  0.12632353  0.12379774  0.62297519  1
  Fe  Fe77  1  0.87254380  0.12589230  0.62714943  1
  Fe  Fe78  1  0.62474579  0.87089481  0.12876846  1
  Fe  Fe79  1  0.25094871  0.49913485  0.74980259  1
  Fe  Fe80  1  0.74703223  0.00051418  0.49724889  1
  Fe  Fe81  1  0.12727256  0.62717558  0.37394759  1
  Fe  Fe82  1  0.37800428  0.87317346  0.62596796  1
  Fe  Fe83  1  0.12115850  0.37655235  0.62342367  1
  Fe  Fe84  1  0.50435794  0.74565664  -0.00046026  1
  Fe  Fe85  1  0.24944596  0.75313751  0.00049891  1
  Fe  Fe86  1  0.00555286  0.24535813  0.24847490  1
  Fe  Fe87  1  0.24976806  0.75110808  0.50157909  1
  Fe  Fe88  1  0.12463720  0.62439328  0.12405747  1
  Fe  Fe89  1  0.87472207  0.37284011  0.87620810  1
  Co  Co90  1  0.50354524  0.75116895  0.75061678  1
  Co  Co91  1  0.25603027  -0.00503880  0.25289386  1
  Co  Co92  1  0.62977948  0.62258334  0.37628779  1
  Co  Co93  1  0.62700286  0.12819274  0.37505165  1
  Co  Co94  1  0.12816054  0.11490993  0.12603811  1
  Co  Co95  1  -0.00069771  0.50142668  0.49624211  1
  Co  Co96  1  0.74737959  0.25525511  0.74747148  1
  Co  Co97  1  0.87827629  0.37254387  0.37102224  1
  Co  Co98  1  0.38093303  0.87231311  0.12443400  1
  Co  Co99  1  0.25280121  0.00081587  0.74923226  1
  Co  Co100  1  0.50209540  0.74394740  0.25305300  1
  Co  Co101  1  -0.00084999  0.00141330  0.74837274  1
  Co  Co102  1  0.62526182  0.62061742  0.87153853  1
  Co  Co103  1  0.62148599  0.87384472  0.37508629  1
  Co  Co104  1  0.24859053  0.74944429  0.75077461  1
  Co  Co105  1  0.50145474  0.74366080  0.49897206  1
  Co  Co106  1  0.62079087  0.37549813  0.61944843  1
  Co  Co107  1  0.88210417  0.37535996  0.62631155  1
  Co  Co108  1  0.75054060  0.74999918  0.25391802  1
  Co  Co109  1  0.74966311  0.25091201  0.00267268  1
  Co  Co110  1  0.12699845  0.12010619  0.37528028  1
  Co  Co111  1  0.74640462  -0.00174235  0.74960257  1
  Co  Co112  1  0.12326509  0.37829709  0.12324600  1
  Co  Co113  1  0.49905537  0.50156712  0.00262126  1
  Co  Co114  1  0.25484883  -0.00193937  -0.00089912  1
  Co  Co115  1  0.87397769  0.87390489  0.87165084  1
  Co  Co116  1  -0.00047518  0.24793346  0.49885012  1
  Co  Co117  1  0.74725126  0.74965177  -0.00161302  1
  Co  Co118  1  -0.00505712  0.00038256  -0.00218634  1
  Co  Co119  1  0.24479828  0.24967427  0.24856560  1
  Co  Co120  1  0.49899915  0.49605691  0.74938452  1
  Co  Co121  1  0.24899331  0.49980741  0.24998025  1
  Co  Co122  1  0.37520854  0.37310827  0.37281874  1
  Co  Co123  1  -0.00352534  0.50187304  -0.00044048  1
  Co  Co124  1  0.62695467  0.62607881  0.12727130  1
  Co  Co125  1  -0.00453571  0.00125189  0.25240420  1
  Co  Co126  1  0.49956001  0.00407593  0.49894341  1
  Co  Co127  1  0.36890830  0.62898923  0.37331255  1
