# generated using pymatgen
data_Fe45Co19
_symmetry_space_group_name_H-M   'P 1'
_cell_length_a   11.41467460
_cell_length_b   11.41579944
_cell_length_c   11.41413503
_cell_angle_alpha   90.00745499
_cell_angle_beta   90.00392670
_cell_angle_gamma   90.00044034
_symmetry_Int_Tables_number   1
_chemical_formula_structural   Fe45Co19
_chemical_formula_sum   'Fe90 Co38'
_cell_volume   1487.34893676
_cell_formula_units_Z   2
loop_
 _symmetry_equiv_pos_site_id
 _symmetry_equiv_pos_as_xyz
  1  'x, y, z'
loop_
 _atom_site_type_symbol
 _atom_site_label
 _atom_site_symmetry_multiplicity
 _atom_site_fract_x
 _atom_site_fract_y
 _atom_site_fract_z
 _atom_site_occupancy
  Fe  Fe0  1  0.87478400  0.62653917  0.12503033  1
  Fe  Fe1  1  0.37625271  0.37532379  0.37622292  1
  Fe  Fe2  1  0.74731374  0.75093029  0.74847319  1
  Fe  Fe3  1  0.87547880  0.87485629  0.62386763  1
  Fe  Fe4  1  0.24693543  0.50245398  0.49851682  1
  Fe  Fe5  1  0.75249501  0.25193860  0.49982930  1
  Fe  Fe6  1  0.12588401  0.12319686  0.37365177  1
  Fe  Fe7  1  0.12504225  0.12664387  0.12463046  1
  Fe  Fe8  1  0.37436856  0.87159182  0.62009235  1
  Fe  Fe9  1  0.50068205  0.25120350  0.25204934  1
  Fe  Fe10  1  0.00171176  0.00348907  0.50315334  1
  Fe  Fe11  1  0.87623130  0.87504332  0.87653000  1
  Fe  Fe12  1  0.00256145  0.50042147  0.00279069  1
  Fe  Fe13  1  0.62519390  0.62482982  0.12677178  1
  Fe  Fe14  1  0.37635967  0.12533590  0.12640999  1
  Fe  Fe15  1  0.25091094  -0.00186249  0.00278041  1
  Fe  Fe16  1  0.12123532  0.87464473  0.12522947  1
  Fe  Fe17  1  0.50286797  0.00168535  0.00263018  1
  Fe  Fe18  1  0.24989382  0.49936889  0.75136820  1
  Fe  Fe19  1  0.25020126  -0.00246618  0.74951531  1
  Fe  Fe20  1  0.50080958  0.50039630  0.49939954  1
  Fe  Fe21  1  0.87432680  0.37228626  0.12198477  1
  Fe  Fe22  1  0.49838573  0.50188154  0.74980344  1
  Fe  Fe23  1  0.12348044  0.37351888  0.87592593  1
  Fe  Fe24  1  0.62584320  0.62524694  0.87567936  1
  Fe  Fe25  1  0.49886595  0.24965136  -0.00238540  1
  Fe  Fe26  1  0.62643073  0.12832599  0.37436103  1
  Fe  Fe27  1  0.37471786  0.87452287  0.87592715  1
  Fe  Fe28  1  0.25190667  0.75244314  0.25093359  1
  Fe  Fe29  1  0.87627471  0.87704359  0.37316932  1
  Fe  Fe30  1  0.87663757  0.37624928  0.87696851  1
  Fe  Fe31  1  0.75089781  0.75212252  0.00187149  1
  Fe  Fe32  1  0.37302921  0.37569675  0.12368954  1
  Fe  Fe33  1  0.00309908  0.74845925  0.49729800  1
  Fe  Fe34  1  0.75078426  0.49879751  0.74904432  1
  Fe  Fe35  1  0.00206463  0.75163267  0.75285520  1
  Fe  Fe36  1  -0.00236314  0.24677966  0.74689593  1
  Fe  Fe37  1  0.75090124  -0.00147948  0.75064727  1
  Fe  Fe38  1  0.37339526  0.62742699  0.62269254  1
  Fe  Fe39  1  0.62698883  0.37214235  0.12492791  1
  Fe  Fe40  1  0.87438579  0.12258153  0.37456672  1
  Fe  Fe41  1  0.38011698  0.87752181  0.13080613  1
  Fe  Fe42  1  0.50080501  0.74902065  0.74720254  1
  Fe  Fe43  1  0.49900841  0.50114614  0.00195956  1
  Fe  Fe44  1  0.49844221  -0.00033075  0.74914189  1
  Fe  Fe45  1  0.12023342  0.37691583  0.37486285  1
  Fe  Fe46  1  0.00082082  0.50149813  0.74930855  1
  Fe  Fe47  1  0.24884909  0.24878873  0.49844328  1
  Fe  Fe48  1  -0.00146045  -0.00074608  0.00106382  1
  Fe  Fe49  1  0.62450756  0.62327235  0.37358626  1
  Fe  Fe50  1  0.25276935  0.25038459  0.75328018  1
  Fe  Fe51  1  0.62385449  0.37706187  0.87600705  1
  Fe  Fe52  1  0.87656490  0.62349466  0.37465792  1
  Fe  Fe53  1  -0.00017991  0.75047272  0.25074733  1
  Fe  Fe54  1  0.74808359  -0.00226825  0.49940854  1
  Fe  Fe55  1  0.12589024  0.87460053  0.62500816  1
  Fe  Fe56  1  0.12806754  0.62584589  0.12549962  1
  Fe  Fe57  1  0.49706721  0.74784637  0.00341051  1
  Fe  Fe58  1  0.62522646  0.12293425  0.87653567  1
  Fe  Fe59  1  0.37276974  0.12169169  0.37281196  1
  Fe  Fe60  1  0.75075602  0.25126546  0.75065100  1
  Fe  Fe61  1  0.37716857  0.62760250  0.37402909  1
  Fe  Fe62  1  0.49864731  -0.00010765  0.49804713  1
  Fe  Fe63  1  0.62098006  0.87319182  0.37207076  1
  Fe  Fe64  1  0.87502687  0.62689112  0.62506141  1
  Fe  Fe65  1  0.87504211  0.12357400  0.87599780  1
  Fe  Fe66  1  0.74616590  -0.00074257  0.24504538  1
  Fe  Fe67  1  0.12673482  0.87900467  0.37391851  1
  Fe  Fe68  1  0.12316076  0.37308025  0.62335248  1
  Fe  Fe69  1  0.49816749  0.24906548  0.75191370  1
  Fe  Fe70  1  0.75033486  0.49631862  0.25001977  1
  Fe  Fe71  1  -0.00126229  0.24930487  0.24928370  1
  Fe  Fe72  1  0.37334849  0.12621222  0.62478766  1
  Fe  Fe73  1  0.37094322  0.62558801  0.87720257  1
  Fe  Fe74  1  0.74968143  0.75203591  0.24921537  1
  Fe  Fe75  1  0.62589732  0.12423534  0.62447299  1
  Fe  Fe76  1  0.87171443  0.12591645  0.12418442  1
  Fe  Fe77  1  0.12517048  0.12193667  0.87412809  1
  Fe  Fe78  1  0.25029427  0.49852216  0.25048003  1
  Fe  Fe79  1  0.87442167  0.62484013  0.87606798  1
  Fe  Fe80  1  0.62301738  0.37376792  0.62339964  1
  Fe  Fe81  1  0.75091306  0.49934139  0.50158955  1
  Fe  Fe82  1  0.87998867  0.37723913  0.37756244  1
  Fe  Fe83  1  0.37483031  0.37420231  0.62389909  1
  Fe  Fe84  1  0.25052788  0.25027137  -0.00256891  1
  Fe  Fe85  1  0.12651375  0.62738055  0.62590067  1
  Fe  Fe86  1  0.62396230  0.87442544  0.87647358  1
  Fe  Fe87  1  0.24946697  0.25023279  0.25069278  1
  Fe  Fe88  1  0.74660840  0.75079489  0.50090566  1
  Fe  Fe89  1  0.12895009  0.62953342  0.87874388  1
  Co  Co90  1  0.87031777  0.12297356  0.62383346  1
  Co  Co91  1  -0.00186583  0.49895010  0.24341495  1
  Co  Co92  1  0.49806762  0.24689363  0.49846392  1
  Co  Co93  1  0.37141604  0.62132150  0.12615313  1
  Co  Co94  1  0.62612602  0.62241867  0.62498422  1
  Co  Co95  1  0.37563374  0.87561233  0.37394623  1
  Co  Co96  1  0.74949031  -0.00168760  0.00272039  1
  Co  Co97  1  0.87815215  0.37536489  0.62330109  1
  Co  Co98  1  0.75007414  0.50028426  0.00066007  1
  Co  Co99  1  0.12702237  0.37285428  0.12604568  1
  Co  Co100  1  0.25339590  0.75536600  0.00464681  1
  Co  Co101  1  0.25050623  0.75220644  0.75059877  1
  Co  Co102  1  0.50061082  0.49724387  0.24938323  1
  Co  Co103  1  0.50488155  0.00397696  0.25144370  1
  Co  Co104  1  0.74990578  0.24965044  -0.00472607  1
  Co  Co105  1  0.37582116  0.37798813  0.87603235  1
  Co  Co106  1  0.24640789  0.74818395  0.49504851  1
  Co  Co107  1  -0.00057860  0.00005249  0.74779262  1
  Co  Co108  1  0.00003434  0.00265788  0.24835233  1
  Co  Co109  1  0.87672793  0.87510272  0.12703657  1
  Co  Co110  1  0.50385030  0.75032853  0.50078823  1
  Co  Co111  1  0.24906742  -0.00034434  0.24654541  1
  Co  Co112  1  -0.00092083  0.74930702  0.00007080  1
  Co  Co113  1  0.62618511  0.13064445  0.12437309  1
  Co  Co114  1  0.75273134  0.25225419  0.25304250  1
  Co  Co115  1  0.37401138  0.12124086  0.87627626  1
  Co  Co116  1  0.49867148  0.74722167  0.24867508  1
  Co  Co117  1  0.25029793  0.00062937  0.50110004  1
  Co  Co118  1  0.12522732  0.87629454  0.87683404  1
  Co  Co119  1  0.24753751  0.49753560  -0.00117147  1
  Co  Co120  1  0.62249421  0.87260456  0.12460050  1
  Co  Co121  1  0.62436034  0.87828398  0.62601932  1
  Co  Co122  1  0.62438810  0.37469626  0.37718078  1
  Co  Co123  1  0.00013314  0.24906835  0.00021106  1
  Co  Co124  1  0.00016693  0.24427494  0.50005818  1
  Co  Co125  1  0.00212096  0.50496029  0.50311280  1
  Co  Co126  1  0.12276046  0.62162083  0.36904035  1
  Co  Co127  1  0.12889420  0.12699465  0.62804139  1
