# generated using pymatgen
data_Fe45Co19
_symmetry_space_group_name_H-M   'P 1'
_cell_length_a   11.41504843
_cell_length_b   11.41477292
_cell_length_c   11.41452197
_cell_angle_alpha   90.00056997
_cell_angle_beta   89.99974227
_cell_angle_gamma   90.00168544
_symmetry_Int_Tables_number   1
_chemical_formula_structural   Fe45Co19
_chemical_formula_sum   'Fe90 Co38'
_cell_volume   1487.31433182
_cell_formula_units_Z   2
loop_
 _symmetry_equiv_pos_site_id
 _symmetry_equiv_pos_as_xyz
  1  'x, y, z'
loop_
 _atom_site_type_symbol
 _atom_site_label
 _atom_site_symmetry_multiplicity
 _atom_site_fract_x
 _atom_site_fract_y
 _atom_site_fract_z
 _atom_site_occupancy
  Fe  Fe0  1  0.24738975  0.49883716  0.24835507  1
  Fe  Fe1  1  0.62480067  0.62725478  0.12256966  1
  Fe  Fe2  1  0.74870627  -0.00028994  0.00121404  1
  Fe  Fe3  1  -0.00008509  0.74856599  0.75295406  1
  Fe  Fe4  1  0.37900792  0.12013300  0.87462766  1
  Fe  Fe5  1  -0.00073240  0.00009282  0.00307705  1
  Fe  Fe6  1  0.25156120  0.24839749  0.24927808  1
  Fe  Fe7  1  0.62582196  0.37413126  0.12359683  1
  Fe  Fe8  1  0.74737151  0.00128830  0.74977100  1
  Fe  Fe9  1  0.25093146  0.49753086  0.49971122  1
  Fe  Fe10  1  0.12515186  0.62533185  0.37605437  1
  Fe  Fe11  1  0.49987294  0.25048144  0.24971899  1
  Fe  Fe12  1  0.62756295  0.87599627  0.37340872  1
  Fe  Fe13  1  0.75520877  0.24773906  0.49699721  1
  Fe  Fe14  1  0.24745490  0.49690622  -0.00163015  1
  Fe  Fe15  1  0.12264533  0.87355659  0.12734870  1
  Fe  Fe16  1  0.24314908  0.49509608  0.75368208  1
  Fe  Fe17  1  0.37357579  0.62316310  0.12582223  1
  Fe  Fe18  1  0.12595561  0.87655258  0.87459010  1
  Fe  Fe19  1  0.50331289  -0.00014030  0.24671778  1
  Fe  Fe20  1  0.74944411  0.50120871  0.24858114  1
  Fe  Fe21  1  0.12442047  0.62426606  0.62529217  1
  Fe  Fe22  1  0.50140997  0.50073322  0.24968771  1
  Fe  Fe23  1  0.12437208  0.62850045  0.12292721  1
  Fe  Fe24  1  0.12279927  0.37267013  0.37671816  1
  Fe  Fe25  1  0.87513002  0.87667923  0.62648192  1
  Fe  Fe26  1  0.37507017  0.12152100  0.37363306  1
  Fe  Fe27  1  0.12406057  0.36898052  0.12119828  1
  Fe  Fe28  1  0.12732678  0.13172892  0.62129366  1
  Fe  Fe29  1  0.37330302  0.62366532  0.62622062  1
  Fe  Fe30  1  0.00010939  0.00138019  0.50116523  1
  Fe  Fe31  1  0.87433016  0.37487079  0.62483718  1
  Fe  Fe32  1  0.62805464  0.37297969  0.62479327  1
  Fe  Fe33  1  0.62659944  0.87363899  0.62429758  1
  Fe  Fe34  1  0.75165648  0.25042395  -0.00314964  1
  Fe  Fe35  1  -0.00119027  0.75137728  0.49785645  1
  Fe  Fe36  1  0.87515526  0.62430198  0.62706604  1
  Fe  Fe37  1  -0.00073744  0.24783919  0.25055246  1
  Fe  Fe38  1  0.00015104  0.25165978  0.74879965  1
  Fe  Fe39  1  0.37265645  0.87827476  0.37512650  1
  Fe  Fe40  1  0.49820574  0.74899343  0.49895996  1
  Fe  Fe41  1  0.50181815  0.49845813  0.74982941  1
  Fe  Fe42  1  0.62222679  0.87783940  0.87553445  1
  Fe  Fe43  1  0.49843504  0.75174703  0.75175515  1
  Fe  Fe44  1  0.00023017  0.49657119  0.50197943  1
  Fe  Fe45  1  0.75039001  0.75017147  -0.00272580  1
  Fe  Fe46  1  0.49702585  0.25069249  0.49958181  1
  Fe  Fe47  1  0.87350356  0.87406794  0.12937824  1
  Fe  Fe48  1  0.00137049  0.50016798  0.24686162  1
  Fe  Fe49  1  0.25056840  0.75196382  -0.00212400  1
  Fe  Fe50  1  0.74956766  0.24775258  0.25279454  1
  Fe  Fe51  1  0.87471481  0.12375224  0.12778844  1
  Fe  Fe52  1  0.12573242  0.12281192  0.37549633  1
  Fe  Fe53  1  0.75221652  0.74965117  0.49805136  1
  Fe  Fe54  1  0.00285569  0.00257583  0.74811324  1
  Fe  Fe55  1  0.62731842  0.37504734  0.37641165  1
  Fe  Fe56  1  0.37545563  0.87657413  0.12542053  1
  Fe  Fe57  1  0.12234525  0.12728687  0.87925508  1
  Fe  Fe58  1  0.37497795  0.37740194  0.37130372  1
  Fe  Fe59  1  0.75148028  0.00306597  0.49884274  1
  Fe  Fe60  1  0.62413631  0.12682108  0.12236497  1
  Fe  Fe61  1  0.24962292  0.75106102  0.25242499  1
  Fe  Fe62  1  0.87812068  0.37884717  0.87697417  1
  Fe  Fe63  1  0.25039169  0.75103472  0.49923651  1
  Fe  Fe64  1  0.87552953  0.62158223  0.37501397  1
  Fe  Fe65  1  0.49822943  0.25159269  -0.00144492  1
  Fe  Fe66  1  0.87638210  0.62690004  0.12099494  1
  Fe  Fe67  1  0.62552643  0.62625727  0.62502921  1
  Fe  Fe68  1  0.24986716  0.00158326  0.00355912  1
  Fe  Fe69  1  0.62787332  0.12753080  0.62536871  1
  Fe  Fe70  1  0.49829471  0.49838839  0.50147964  1
  Fe  Fe71  1  0.49985384  0.74930391  0.25139557  1
  Fe  Fe72  1  0.74921308  0.50093503  0.75363990  1
  Fe  Fe73  1  0.49984300  0.00180868  0.50334222  1
  Fe  Fe74  1  0.49740587  0.75204705  -0.00228706  1
  Fe  Fe75  1  0.62548450  0.62323586  0.37740855  1
  Fe  Fe76  1  0.37020576  0.37078649  0.62864008  1
  Fe  Fe77  1  0.37342322  0.62304399  0.87451671  1
  Fe  Fe78  1  0.75072656  0.74887626  0.75338559  1
  Fe  Fe79  1  0.12438352  0.87385611  0.62442978  1
  Fe  Fe80  1  0.25505335  0.24994309  -0.00197043  1
  Fe  Fe81  1  0.50017415  0.49819646  -0.00074782  1
  Fe  Fe82  1  0.87678785  0.87727336  0.87366301  1
  Fe  Fe83  1  0.87550479  0.87898181  0.36966897  1
  Fe  Fe84  1  0.24913907  0.00345817  0.74726172  1
  Fe  Fe85  1  0.87470712  0.12340034  0.87230836  1
  Fe  Fe86  1  0.87489229  0.37543564  0.12488416  1
  Fe  Fe87  1  0.50180392  0.24878921  0.75207731  1
  Fe  Fe88  1  0.24994296  0.75021720  0.75114556  1
  Fe  Fe89  1  0.37433624  0.87661929  0.62619694  1
  Co  Co90  1  -0.00007902  0.74827090  0.25186593  1
  Co  Co91  1  0.37702855  0.12509426  0.12566885  1
  Co  Co92  1  0.62544632  0.37449207  0.87629883  1
  Co  Co93  1  0.62226270  0.62485118  0.87552096  1
  Co  Co94  1  0.12336360  0.62661450  0.87634338  1
  Co  Co95  1  0.62214248  0.12600925  0.37648655  1
  Co  Co96  1  0.25449766  0.25024280  0.49437386  1
  Co  Co97  1  -0.00679266  0.24687432  0.00104273  1
  Co  Co98  1  0.24837290  0.24856099  0.75684800  1
  Co  Co99  1  -0.00463654  0.24907947  0.49889159  1
  Co  Co100  1  0.75039767  0.49983217  0.50142785  1
  Co  Co101  1  0.37350369  0.88053770  0.87392484  1
  Co  Co102  1  0.75050017  0.74590359  0.25167365  1
  Co  Co103  1  0.87432115  0.12423893  0.62824190  1
  Co  Co104  1  0.24796337  0.00083996  0.24553515  1
  Co  Co105  1  0.50194383  0.00105077  0.74568688  1
  Co  Co106  1  0.12836149  0.36949494  0.62185879  1
  Co  Co107  1  0.00424279  0.00215422  0.24596840  1
  Co  Co108  1  0.87762948  0.12100736  0.37145414  1
  Co  Co109  1  0.12525112  0.12993527  0.12224100  1
  Co  Co110  1  0.11937636  0.36946606  0.88050377  1
  Co  Co111  1  0.87907144  0.62228676  0.87763446  1
  Co  Co112  1  0.75210968  0.25191849  0.75326057  1
  Co  Co113  1  0.62504062  0.12440078  0.87588657  1
  Co  Co114  1  0.62691051  0.87173127  0.12573320  1
  Co  Co115  1  0.37496120  0.37636095  0.12627357  1
  Co  Co116  1  0.37354288  0.12899830  0.62642787  1
  Co  Co117  1  0.37371476  0.62299276  0.37407131  1
  Co  Co118  1  0.24993697  0.00026628  0.50390556  1
  Co  Co119  1  0.74871202  0.50008764  -0.00059132  1
  Co  Co120  1  0.00336993  0.49730329  0.74837621  1
  Co  Co121  1  0.00378002  0.50040066  0.00268262  1
  Co  Co122  1  0.37667481  0.37633023  0.87274137  1
  Co  Co123  1  0.12493061  0.87773207  0.37498078  1
  Co  Co124  1  0.50207114  -0.00181650  0.00329162  1
  Co  Co125  1  0.00012287  0.75425133  -0.00168608  1
  Co  Co126  1  0.87483356  0.37675792  0.37277010  1
  Co  Co127  1  0.74504066  0.00372279  0.24867281  1
