# generated using pymatgen
data_Fe45Co19
_symmetry_space_group_name_H-M   'P 1'
_cell_length_a   11.41550578
_cell_length_b   11.41655588
_cell_length_c   11.41511309
_cell_angle_alpha   90.00334405
_cell_angle_beta   89.99507434
_cell_angle_gamma   89.99891836
_symmetry_Int_Tables_number   1
_chemical_formula_structural   Fe45Co19
_chemical_formula_sum   'Fe90 Co38'
_cell_volume   1487.68327725
_cell_formula_units_Z   2
loop_
 _symmetry_equiv_pos_site_id
 _symmetry_equiv_pos_as_xyz
  1  'x, y, z'
loop_
 _atom_site_type_symbol
 _atom_site_label
 _atom_site_symmetry_multiplicity
 _atom_site_fract_x
 _atom_site_fract_y
 _atom_site_fract_z
 _atom_site_occupancy
  Fe  Fe0  1  0.49958376  0.74775573  0.75131737  1
  Fe  Fe1  1  0.62438780  0.87400906  0.62416616  1
  Fe  Fe2  1  0.62746629  0.12603339  0.87532629  1
  Fe  Fe3  1  0.62521231  0.12517716  0.37800023  1
  Fe  Fe4  1  0.62603077  0.62655413  0.12047854  1
  Fe  Fe5  1  -0.00429427  -0.00131244  -0.00118722  1
  Fe  Fe6  1  0.37536508  0.37467649  0.12519322  1
  Fe  Fe7  1  0.37919845  0.87337197  0.12834258  1
  Fe  Fe8  1  0.62478262  0.12549771  0.12257310  1
  Fe  Fe9  1  0.12490600  0.37593857  0.87765639  1
  Fe  Fe10  1  0.00186284  0.00225004  0.25115776  1
  Fe  Fe11  1  0.87630999  0.62767217  0.12819179  1
  Fe  Fe12  1  0.25314874  -0.00005401  0.00142165  1
  Fe  Fe13  1  0.12290423  0.62365955  0.62296590  1
  Fe  Fe14  1  0.37126159  0.62370758  0.87723343  1
  Fe  Fe15  1  0.12580816  0.12564881  0.87787257  1
  Fe  Fe16  1  -0.00353107  0.49863146  0.00221807  1
  Fe  Fe17  1  0.50191291  0.00110026  0.74998360  1
  Fe  Fe18  1  0.12531093  0.12507311  0.62154147  1
  Fe  Fe19  1  -0.00215443  0.00224426  0.50002879  1
  Fe  Fe20  1  0.49940767  0.49940170  -0.00073612  1
  Fe  Fe21  1  0.75357895  -0.00301132  -0.00014103  1
  Fe  Fe22  1  0.50154433  0.50009024  0.75010246  1
  Fe  Fe23  1  0.00223665  0.00202979  0.74915215  1
  Fe  Fe24  1  0.49708100  0.00126911  0.00044489  1
  Fe  Fe25  1  0.25347077  0.25061141  -0.00129628  1
  Fe  Fe26  1  0.37702872  0.87519133  0.37236307  1
  Fe  Fe27  1  0.75295759  0.00019471  0.50183595  1
  Fe  Fe28  1  0.12441477  0.62320346  0.37578368  1
  Fe  Fe29  1  0.50089886  0.25117101  0.74999332  1
  Fe  Fe30  1  -0.00496433  0.49963909  0.49659065  1
  Fe  Fe31  1  0.37399179  0.62329536  0.62403531  1
  Fe  Fe32  1  0.75519355  0.25117841  0.49787420  1
  Fe  Fe33  1  0.75523692  0.49803324  0.49730440  1
  Fe  Fe34  1  -0.00186002  0.74968202  0.49879093  1
  Fe  Fe35  1  0.75038201  0.75159127  0.74950911  1
  Fe  Fe36  1  0.50398160  0.50082093  0.25185370  1
  Fe  Fe37  1  0.12502251  0.87733326  0.37680345  1
  Fe  Fe38  1  0.87334919  0.37286170  0.13318712  1
  Fe  Fe39  1  -0.00359455  0.24820115  0.49382625  1
  Fe  Fe40  1  0.62756415  0.37453897  0.87814269  1
  Fe  Fe41  1  0.37670885  0.37678671  0.62297868  1
  Fe  Fe42  1  0.12144839  0.87447275  0.12376347  1
  Fe  Fe43  1  0.87338125  0.62645389  0.87533737  1
  Fe  Fe44  1  0.37481968  0.62539167  0.12400163  1
  Fe  Fe45  1  0.12690391  0.62530424  0.87929359  1
  Fe  Fe46  1  0.25016150  0.25110106  0.49774777  1
  Fe  Fe47  1  0.00191087  0.74870549  0.74987881  1
  Fe  Fe48  1  0.12603779  0.87343150  0.87527150  1
  Fe  Fe49  1  0.87381841  0.37191663  0.87240481  1
  Fe  Fe50  1  0.24823601  0.75020462  0.24946376  1
  Fe  Fe51  1  0.74662273  0.00027072  0.24947413  1
  Fe  Fe52  1  0.62298987  0.87424784  0.37485409  1
  Fe  Fe53  1  -0.00427624  0.24961793  0.00095667  1
  Fe  Fe54  1  -0.00076463  0.49926929  0.75066427  1
  Fe  Fe55  1  0.50307224  0.24969095  0.25173068  1
  Fe  Fe56  1  0.24854551  0.25106696  0.75127418  1
  Fe  Fe57  1  0.62816825  0.62497187  0.62394155  1
  Fe  Fe58  1  0.37317598  0.12387148  0.62740892  1
  Fe  Fe59  1  0.24712814  0.25148575  0.25255970  1
  Fe  Fe60  1  0.24827000  0.49869534  0.74856807  1
  Fe  Fe61  1  0.62696485  0.62542570  0.37768023  1
  Fe  Fe62  1  0.37391225  0.12375288  0.37279885  1
  Fe  Fe63  1  0.62849652  0.37469017  0.12433893  1
  Fe  Fe64  1  0.87499381  0.87547967  0.37158760  1
  Fe  Fe65  1  0.62177457  0.87330889  0.12487832  1
  Fe  Fe66  1  0.12584911  0.12594166  0.12388692  1
  Fe  Fe67  1  0.12132723  0.37462410  0.62162183  1
  Fe  Fe68  1  0.12315510  0.37322831  0.12505527  1
  Fe  Fe69  1  0.62376110  0.37534145  0.61943802  1
  Fe  Fe70  1  0.75397442  0.75032988  0.50025476  1
  Fe  Fe71  1  0.24877737  0.75120365  0.50157298  1
  Fe  Fe72  1  0.87188663  0.12732697  0.86899448  1
  Fe  Fe73  1  0.24967240  0.00026531  0.24881688  1
  Fe  Fe74  1  0.62715123  0.12553521  0.62369882  1
  Fe  Fe75  1  0.74880996  0.75002702  0.24904392  1
  Fe  Fe76  1  0.49802895  0.00032413  0.50002498  1
  Fe  Fe77  1  0.87681189  0.87510219  0.62761217  1
  Fe  Fe78  1  0.62877188  0.62557877  0.87814353  1
  Fe  Fe79  1  0.37248523  0.87463499  0.87238110  1
  Fe  Fe80  1  0.12338102  0.62680744  0.12239238  1
  Fe  Fe81  1  0.87411710  0.12534392  0.12949019  1
  Fe  Fe82  1  0.62597649  0.87423162  0.87644629  1
  Fe  Fe83  1  0.37232210  0.87550671  0.62763987  1
  Fe  Fe84  1  0.75104857  0.49675643  0.74812002  1
  Fe  Fe85  1  0.37345782  0.62324598  0.37602140  1
  Fe  Fe86  1  0.49755660  0.24946196  -0.00111967  1
  Fe  Fe87  1  0.37801712  0.37777898  0.37775010  1
  Fe  Fe88  1  0.49866726  0.74921884  0.50012852  1
  Fe  Fe89  1  0.24694398  0.49827301  0.25017962  1
  Co  Co90  1  0.50183197  0.50414077  0.49962788  1
  Co  Co91  1  0.87880019  0.37251909  0.62612932  1
  Co  Co92  1  0.50164062  0.74505621  0.25155263  1
  Co  Co93  1  0.74519125  0.24757392  0.25234745  1
  Co  Co94  1  0.87530621  0.62548013  0.37053503  1
  Co  Co95  1  0.75414460  0.75433921  0.00159014  1
  Co  Co96  1  0.24769512  0.74754707  0.74787494  1
  Co  Co97  1  0.74596624  0.25338982  0.74651743  1
  Co  Co98  1  0.87345334  0.12277386  0.37053447  1
  Co  Co99  1  0.87535439  0.37540032  0.36570234  1
  Co  Co100  1  0.24763694  0.49886517  0.50062593  1
  Co  Co101  1  0.87765826  0.87513258  0.13088854  1
  Co  Co102  1  0.00336328  0.75073454  0.25252276  1
  Co  Co103  1  0.87454347  0.62500474  0.62691023  1
  Co  Co104  1  0.12727271  0.12230211  0.37612765  1
  Co  Co105  1  0.00317638  0.50157850  0.24836781  1
  Co  Co106  1  0.24906633  0.49782033  0.00304126  1
  Co  Co107  1  0.49799764  0.74988045  -0.00223773  1
  Co  Co108  1  0.50233544  0.00409135  0.25083425  1
  Co  Co109  1  -0.00293935  0.75203782  -0.00099703  1
  Co  Co110  1  0.25079874  0.75299916  0.00291525  1
  Co  Co111  1  0.12396556  0.87586640  0.62400291  1
  Co  Co112  1  0.87585771  0.87473243  0.86954513  1
  Co  Co113  1  0.75504890  0.49853841  0.00197635  1
  Co  Co114  1  0.49750877  0.24624647  0.50001685  1
  Co  Co115  1  0.74849408  -0.00119169  0.74836538  1
  Co  Co116  1  0.37501266  0.12487116  0.87312624  1
  Co  Co117  1  0.25256697  -0.00131779  0.49994996  1
  Co  Co118  1  0.12173138  0.37703925  0.37610078  1
  Co  Co119  1  0.00494554  0.24927415  0.75110237  1
  Co  Co120  1  0.87524905  0.12726589  0.62906413  1
  Co  Co121  1  0.74562279  0.50272010  0.25030887  1
  Co  Co122  1  0.00405477  0.24617484  0.25239733  1
  Co  Co123  1  0.37474823  0.37703248  0.87469600  1
  Co  Co124  1  0.24537538  0.00201677  0.75010084  1
  Co  Co125  1  0.75372133  0.24922676  0.00157507  1
  Co  Co126  1  0.37430646  0.12755256  0.12747791  1
  Co  Co127  1  0.62465074  0.37462028  0.37842980  1
