# generated using pymatgen
data_Fe45Co19
_symmetry_space_group_name_H-M   'P 1'
_cell_length_a   11.41555321
_cell_length_b   11.41321724
_cell_length_c   11.41545296
_cell_angle_alpha   89.99247352
_cell_angle_beta   90.00412572
_cell_angle_gamma   89.99217150
_symmetry_Int_Tables_number   1
_chemical_formula_structural   Fe45Co19
_chemical_formula_sum   'Fe90 Co38'
_cell_volume   1487.29865869
_cell_formula_units_Z   2
loop_
 _symmetry_equiv_pos_site_id
 _symmetry_equiv_pos_as_xyz
  1  'x, y, z'
loop_
 _atom_site_type_symbol
 _atom_site_label
 _atom_site_symmetry_multiplicity
 _atom_site_fract_x
 _atom_site_fract_y
 _atom_site_fract_z
 _atom_site_occupancy
  Fe  Fe0  1  0.13154514  0.12239010  0.62188280  1
  Fe  Fe1  1  0.87735320  0.12060633  0.37486993  1
  Fe  Fe2  1  0.00004487  0.75140587  0.24785181  1
  Fe  Fe3  1  0.00005338  0.75270975  0.50250123  1
  Fe  Fe4  1  0.12909757  0.87745753  0.62289152  1
  Fe  Fe5  1  0.37554361  0.12653629  0.87313727  1
  Fe  Fe6  1  0.36874362  0.12584728  0.62400104  1
  Fe  Fe7  1  0.37410560  0.62518507  0.87302439  1
  Fe  Fe8  1  0.87437655  0.62793501  0.37589086  1
  Fe  Fe9  1  0.37193673  0.37097094  0.62645813  1
  Fe  Fe10  1  0.87227750  0.12089659  0.62590792  1
  Fe  Fe11  1  -0.00090085  0.50338633  0.00308118  1
  Fe  Fe12  1  0.87664329  0.87384981  0.87366550  1
  Fe  Fe13  1  0.37535647  0.12531799  0.12659753  1
  Fe  Fe14  1  0.25499308  -0.00237994  -0.00196876  1
  Fe  Fe15  1  0.25116207  0.75048024  0.00109911  1
  Fe  Fe16  1  0.49863173  0.24716923  0.50131087  1
  Fe  Fe17  1  0.74908072  0.50018093  0.74782643  1
  Fe  Fe18  1  0.62279440  0.12453451  0.87406881  1
  Fe  Fe19  1  0.87646194  0.12557256  0.87464439  1
  Fe  Fe20  1  0.12761552  0.87548468  0.12676146  1
  Fe  Fe21  1  0.12852203  0.12211665  0.12617851  1
  Fe  Fe22  1  0.62353630  0.62383825  0.87417193  1
  Fe  Fe23  1  0.75152902  0.24897540  0.49862447  1
  Fe  Fe24  1  0.12335888  0.37695041  0.87395750  1
  Fe  Fe25  1  0.62729940  0.87369616  0.12307975  1
  Fe  Fe26  1  0.74952913  0.50103055  -0.00046132  1
  Fe  Fe27  1  0.87575518  0.62580185  0.87246625  1
  Fe  Fe28  1  0.87652341  0.37613482  0.87275700  1
  Fe  Fe29  1  0.74638864  0.75216529  0.74826352  1
  Fe  Fe30  1  0.12592138  0.87577516  0.87542139  1
  Fe  Fe31  1  0.49560948  -0.00102078  0.74671015  1
  Fe  Fe32  1  0.00004948  0.50212076  0.50153934  1
  Fe  Fe33  1  0.24591279  0.50025914  0.74663350  1
  Fe  Fe34  1  0.25011796  0.49914705  0.49929679  1
  Fe  Fe35  1  0.50156809  0.25039227  0.25076510  1
  Fe  Fe36  1  0.12448105  0.37789308  0.12824631  1
  Fe  Fe37  1  0.25456052  -0.00554387  0.25589078  1
  Fe  Fe38  1  0.87330726  0.12430103  0.12529808  1
  Fe  Fe39  1  0.62064154  0.87649112  0.87458211  1
  Fe  Fe40  1  0.37600539  0.37331913  0.37475059  1
  Fe  Fe41  1  0.74939070  0.25059325  -0.00153256  1
  Fe  Fe42  1  0.75012843  0.25081402  0.25330374  1
  Fe  Fe43  1  0.75150498  -0.00371624  0.25228750  1
  Fe  Fe44  1  0.50211735  0.75022630  0.50579137  1
  Fe  Fe45  1  0.37284464  0.62617607  0.12794086  1
  Fe  Fe46  1  0.00123261  0.25009020  0.00187896  1
  Fe  Fe47  1  0.62414552  0.62173079  0.38093117  1
  Fe  Fe48  1  0.00207570  0.00009604  0.74788883  1
  Fe  Fe49  1  0.75052398  0.50096792  0.25324344  1
  Fe  Fe50  1  0.12469599  0.12014253  0.37542249  1
  Fe  Fe51  1  0.25153520  0.49897682  0.00259782  1
  Fe  Fe52  1  0.62735782  0.11955268  0.62344750  1
  Fe  Fe53  1  0.37546120  0.62779873  0.37513118  1
  Fe  Fe54  1  0.74931318  0.75361179  0.50146772  1
  Fe  Fe55  1  0.74766775  0.25013479  0.74973792  1
  Fe  Fe56  1  0.50091133  0.75099167  0.74589962  1
  Fe  Fe57  1  0.49955573  0.50096551  0.25081412  1
  Fe  Fe58  1  0.00331630  0.24872036  0.74872840  1
  Fe  Fe59  1  0.62360004  0.12239823  0.37689729  1
  Fe  Fe60  1  0.12515946  0.62478288  0.87572637  1
  Fe  Fe61  1  -0.00161269  -0.00184240  0.00346445  1
  Fe  Fe62  1  0.50346872  0.74848290  0.24825529  1
  Fe  Fe63  1  0.37240481  0.62712845  0.62420282  1
  Fe  Fe64  1  0.86888807  0.63020822  0.12571327  1
  Fe  Fe65  1  0.12153956  0.37720428  0.37375392  1
  Fe  Fe66  1  0.00047460  0.24749148  0.24998218  1
  Fe  Fe67  1  0.12516241  0.12320061  0.87671938  1
  Fe  Fe68  1  0.87496696  0.62701445  0.62646686  1
  Fe  Fe69  1  0.24961410  0.75165770  0.75084597  1
  Fe  Fe70  1  0.24978544  0.25135974  0.25197090  1
  Fe  Fe71  1  0.87511031  0.37448140  0.12808293  1
  Fe  Fe72  1  0.24877344  0.75386531  0.49553798  1
  Fe  Fe73  1  0.62513383  0.12467350  0.12442129  1
  Fe  Fe74  1  0.00073538  0.74961446  0.00204585  1
  Fe  Fe75  1  0.62486621  0.37689904  0.62161203  1
  Fe  Fe76  1  0.49863973  -0.00105151  0.24947885  1
  Fe  Fe77  1  0.87745899  0.37502947  0.62436332  1
  Fe  Fe78  1  0.62449861  0.37608993  0.12472371  1
  Fe  Fe79  1  0.75047671  -0.00136452  -0.00282811  1
  Fe  Fe80  1  0.00318429  0.75041349  0.74817064  1
  Fe  Fe81  1  0.49815919  0.49903092  -0.00005564  1
  Fe  Fe82  1  0.49993382  0.74906065  0.00139282  1
  Fe  Fe83  1  0.49864225  0.25272013  -0.00205130  1
  Fe  Fe84  1  0.00063974  0.24705233  0.50017290  1
  Fe  Fe85  1  0.12557588  0.62527446  0.37186969  1
  Fe  Fe86  1  0.62491000  0.37712569  0.37925955  1
  Fe  Fe87  1  0.25134725  0.25257119  -0.00120551  1
  Fe  Fe88  1  0.50013539  0.49941877  0.74724080  1
  Fe  Fe89  1  0.62136911  0.87738451  0.37958723  1
  Co  Co90  1  0.75003888  -0.00140240  0.75491862  1
  Co  Co91  1  0.25178445  -0.00179177  0.75301985  1
  Co  Co92  1  0.37587735  0.37346465  0.12705898  1
  Co  Co93  1  0.37597384  0.87367832  0.12599446  1
  Co  Co94  1  0.37603390  0.12739492  0.37323242  1
  Co  Co95  1  0.74572365  0.75127664  0.25702289  1
  Co  Co96  1  0.24907749  0.25162618  0.49528372  1
  Co  Co97  1  -0.00396580  0.50473125  0.24903881  1
  Co  Co98  1  0.62575518  0.88115152  0.62353216  1
  Co  Co99  1  0.37743583  0.87198879  0.87468549  1
  Co  Co100  1  0.11873905  0.87719260  0.37432105  1
  Co  Co101  1  0.37411735  0.37622234  0.86991162  1
  Co  Co102  1  0.12801582  0.62558001  0.12825527  1
  Co  Co103  1  0.49379572  0.00258702  0.50155905  1
  Co  Co104  1  0.62569454  0.62191171  0.62269846  1
  Co  Co105  1  0.49358828  0.49962174  0.50212755  1
  Co  Co106  1  0.87799694  0.37449969  0.37594758  1
  Co  Co107  1  0.75473264  0.50065582  0.50039426  1
  Co  Co108  1  -0.00005484  -0.00031746  0.50448957  1
  Co  Co109  1  0.12677946  0.62824775  0.62214118  1
  Co  Co110  1  0.37173613  0.87352078  0.62326268  1
  Co  Co111  1  0.25283179  0.49987660  0.25177647  1
  Co  Co112  1  0.74733610  0.75060245  -0.00558088  1
  Co  Co113  1  0.00312390  0.50238992  0.74694259  1
  Co  Co114  1  0.62711506  0.62420907  0.12440960  1
  Co  Co115  1  0.38282390  0.86945113  0.37605269  1
  Co  Co116  1  -0.00189200  -0.00119025  0.24497462  1
  Co  Co117  1  0.86977721  0.87124040  0.12525687  1
  Co  Co118  1  0.50223996  0.24888251  0.74719981  1
  Co  Co119  1  0.62456564  0.37608208  0.87475326  1
  Co  Co120  1  0.25466777  -0.00380676  0.49248096  1
  Co  Co121  1  0.75298204  -0.00255885  0.49642720  1
  Co  Co122  1  0.12410485  0.37256583  0.62266648  1
  Co  Co123  1  0.87961207  0.87542239  0.37547037  1
  Co  Co124  1  0.49846554  0.00004516  0.00117342  1
  Co  Co125  1  0.87339833  0.87678844  0.62684476  1
  Co  Co126  1  0.25000306  0.75406588  0.25286000  1
  Co  Co127  1  0.24561589  0.24946432  0.75292314  1
