# generated using pymatgen
data_Fe45Co19
_symmetry_space_group_name_H-M   'P 1'
_cell_length_a   11.41421651
_cell_length_b   11.41514578
_cell_length_c   11.41515572
_cell_angle_alpha   89.99955521
_cell_angle_beta   89.99984940
_cell_angle_gamma   90.00620332
_symmetry_Int_Tables_number   1
_chemical_formula_structural   Fe45Co19
_chemical_formula_sum   'Fe90 Co38'
_cell_volume   1487.33708223
_cell_formula_units_Z   2
loop_
 _symmetry_equiv_pos_site_id
 _symmetry_equiv_pos_as_xyz
  1  'x, y, z'
loop_
 _atom_site_type_symbol
 _atom_site_label
 _atom_site_symmetry_multiplicity
 _atom_site_fract_x
 _atom_site_fract_y
 _atom_site_fract_z
 _atom_site_occupancy
  Fe  Fe0  1  0.75233567  0.49624805  -0.00011166  1
  Fe  Fe1  1  0.12616269  0.12574553  0.12212634  1
  Fe  Fe2  1  0.74885688  0.75118179  0.74823454  1
  Fe  Fe3  1  0.25037126  -0.00025024  0.24711853  1
  Fe  Fe4  1  0.37524618  0.62338194  0.37497081  1
  Fe  Fe5  1  0.87688159  0.12694138  0.62614687  1
  Fe  Fe6  1  0.37611398  0.37477225  0.62523167  1
  Fe  Fe7  1  0.12585122  0.87641794  0.37658479  1
  Fe  Fe8  1  0.12583075  0.62181985  0.38069798  1
  Fe  Fe9  1  0.00177561  0.75030352  0.74931521  1
  Fe  Fe10  1  0.49738639  0.24682695  0.49794221  1
  Fe  Fe11  1  0.25012058  0.75135351  0.00139864  1
  Fe  Fe12  1  0.00048916  0.00208421  0.50050497  1
  Fe  Fe13  1  0.50061262  0.75097335  0.50044904  1
  Fe  Fe14  1  0.25205931  0.49878074  -0.00239684  1
  Fe  Fe15  1  0.87361792  0.87696872  0.87622750  1
  Fe  Fe16  1  0.74521345  0.24824750  0.74934282  1
  Fe  Fe17  1  0.74815387  0.00064071  0.50178025  1
  Fe  Fe18  1  0.87312378  0.62394044  0.37491170  1
  Fe  Fe19  1  0.00041245  0.74758503  0.00071510  1
  Fe  Fe20  1  0.74817286  0.49961372  0.75038832  1
  Fe  Fe21  1  0.12021496  0.37916838  0.12511109  1
  Fe  Fe22  1  0.25580822  0.00346144  0.50030206  1
  Fe  Fe23  1  0.12766205  0.12676875  0.62529415  1
  Fe  Fe24  1  0.49925724  0.50069557  0.49615716  1
  Fe  Fe25  1  0.49775291  0.49994684  0.75293277  1
  Fe  Fe26  1  0.49765731  -0.00047792  -0.00234095  1
  Fe  Fe27  1  0.12603045  0.37685376  0.62551560  1
  Fe  Fe28  1  0.87620112  0.62385023  0.62576758  1
  Fe  Fe29  1  0.61784845  0.12051710  0.62964501  1
  Fe  Fe30  1  0.87524033  0.87593517  0.62492662  1
  Fe  Fe31  1  0.62499230  0.12513771  0.37261492  1
  Fe  Fe32  1  0.49997536  0.75169771  -0.00085162  1
  Fe  Fe33  1  0.50230107  0.25177516  0.24925553  1
  Fe  Fe34  1  0.87490351  0.12878429  0.12728635  1
  Fe  Fe35  1  0.87587032  0.87536439  0.37357819  1
  Fe  Fe36  1  0.12651787  0.87645883  0.87539895  1
  Fe  Fe37  1  0.62171195  0.37515175  0.62398849  1
  Fe  Fe38  1  0.74844296  0.75077481  0.50201014  1
  Fe  Fe39  1  0.25092805  0.74878777  0.74786902  1
  Fe  Fe40  1  0.24891745  0.25166759  0.24791811  1
  Fe  Fe41  1  0.62456975  0.37482357  0.87550094  1
  Fe  Fe42  1  0.50080490  0.24799648  -0.00342657  1
  Fe  Fe43  1  0.12711643  0.62388515  0.87523889  1
  Fe  Fe44  1  0.12945952  0.12632023  0.87799714  1
  Fe  Fe45  1  0.49934371  0.75362386  0.75045061  1
  Fe  Fe46  1  0.62413177  0.62416045  0.62445471  1
  Fe  Fe47  1  -0.00094498  0.00060076  0.00015517  1
  Fe  Fe48  1  0.87239911  0.12665105  0.87440598  1
  Fe  Fe49  1  0.37445679  0.62528526  0.12459091  1
  Fe  Fe50  1  0.00248488  0.74570030  0.24968355  1
  Fe  Fe51  1  0.74869908  0.75112994  0.24715445  1
  Fe  Fe52  1  0.12608262  0.37460763  0.87425877  1
  Fe  Fe53  1  0.25522477  0.00062696  0.75113178  1
  Fe  Fe54  1  0.50076959  0.74858273  0.24939992  1
  Fe  Fe55  1  0.62894084  0.87988218  0.87417268  1
  Fe  Fe56  1  0.37827208  0.37655223  0.12538544  1
  Fe  Fe57  1  0.12846524  0.87587340  0.62332957  1
  Fe  Fe58  1  0.00018731  0.49932490  0.75149123  1
  Fe  Fe59  1  0.25057345  0.50001512  0.25068347  1
  Fe  Fe60  1  0.37418601  0.12574184  0.12309168  1
  Fe  Fe61  1  0.37416516  0.87524513  0.37581770  1
  Fe  Fe62  1  0.87566422  0.37235105  0.62812377  1
  Fe  Fe63  1  0.62426294  0.62375973  0.12404347  1
  Fe  Fe64  1  0.12359339  0.87412869  0.12523872  1
  Fe  Fe65  1  0.62493899  0.87486367  0.37519452  1
  Fe  Fe66  1  0.75024267  0.75255254  0.00259812  1
  Fe  Fe67  1  0.12745842  0.12520821  0.37535274  1
  Fe  Fe68  1  0.75029659  0.49795970  0.49909489  1
  Fe  Fe69  1  0.00093561  0.00200522  0.24962333  1
  Fe  Fe70  1  0.00095573  0.24989988  0.49940909  1
  Fe  Fe71  1  0.74899431  -0.00154831  0.24488177  1
  Fe  Fe72  1  0.37334432  0.62432565  0.62518471  1
  Fe  Fe73  1  0.00081324  0.00230116  0.75037438  1
  Fe  Fe74  1  0.87576098  0.37190090  0.37074750  1
  Fe  Fe75  1  0.49922372  -0.00100470  0.24906322  1
  Fe  Fe76  1  0.87381836  0.62498872  0.87461497  1
  Fe  Fe77  1  -0.00142168  0.25334855  -0.00083471  1
  Fe  Fe78  1  0.74382006  0.49540401  0.25039963  1
  Fe  Fe79  1  0.49813958  0.50200686  -0.00244677  1
  Fe  Fe80  1  0.12499404  0.37600144  0.37557119  1
  Fe  Fe81  1  0.74851678  0.25096870  0.00302645  1
  Fe  Fe82  1  0.25369913  0.25092649  0.75135540  1
  Fe  Fe83  1  0.00138057  0.74916763  0.50146400  1
  Fe  Fe84  1  0.87278607  0.12697902  0.37237014  1
  Fe  Fe85  1  0.24885638  0.74911099  0.25045360  1
  Fe  Fe86  1  0.74747514  0.24861589  0.50103129  1
  Fe  Fe87  1  0.25404514  0.24988577  0.49832718  1
  Fe  Fe88  1  0.62518652  0.62580430  0.87508154  1
  Fe  Fe89  1  0.87573191  0.62091627  0.12500138  1
  Co  Co90  1  0.37428648  0.87501780  0.62181344  1
  Co  Co91  1  0.37595234  0.37410178  0.37245406  1
  Co  Co92  1  0.37537334  0.37353444  0.87658691  1
  Co  Co93  1  0.37835825  0.12651755  0.62851389  1
  Co  Co94  1  0.24988447  0.74799314  0.49977048  1
  Co  Co95  1  0.24944598  0.25515125  0.00305750  1
  Co  Co96  1  0.00333156  0.24810245  0.75135601  1
  Co  Co97  1  -0.00318378  0.49724050  0.50051267  1
  Co  Co98  1  0.37526275  0.87340293  0.12584661  1
  Co  Co99  1  0.74421843  0.25336515  0.24617871  1
  Co  Co100  1  0.37456412  0.12623361  0.36966238  1
  Co  Co101  1  0.87958122  0.87346421  0.12590169  1
  Co  Co102  1  0.87235186  0.37130908  0.87099280  1
  Co  Co103  1  0.25261170  0.49944581  0.75205931  1
  Co  Co104  1  0.62246822  0.37233280  0.37828369  1
  Co  Co105  1  0.62299082  0.87838263  0.62642490  1
  Co  Co106  1  0.12745408  0.62215402  0.12116739  1
  Co  Co107  1  0.62244160  0.87516347  0.12409553  1
  Co  Co108  1  0.49303930  -0.00337640  0.75515470  1
  Co  Co109  1  0.75168629  0.00091664  0.00565448  1
  Co  Co110  1  0.87874607  0.37599713  0.12970115  1
  Co  Co111  1  0.75310122  0.00171372  0.74681522  1
  Co  Co112  1  0.49802312  0.00144372  0.49781066  1
  Co  Co113  1  0.62029628  0.37633907  0.12094253  1
  Co  Co114  1  0.37424235  0.62787283  0.87565500  1
  Co  Co115  1  0.49960288  0.25125015  0.75439435  1
  Co  Co116  1  0.62623524  0.12077527  0.87376101  1
  Co  Co117  1  0.62623002  0.62655767  0.37598108  1
  Co  Co118  1  0.62183474  0.12399677  0.12433423  1
  Co  Co119  1  0.25304743  0.49832104  0.49972250  1
  Co  Co120  1  0.12537654  0.62113231  0.62442181  1
  Co  Co121  1  0.37136991  0.12760596  0.87802651  1
  Co  Co122  1  0.37173710  0.87261046  0.87733524  1
  Co  Co123  1  -0.00242846  0.49847636  -0.00481131  1
  Co  Co124  1  0.00432907  0.24744810  0.25076707  1
  Co  Co125  1  0.25141324  -0.00231168  0.00239785  1
  Co  Co126  1  0.00196538  0.50403722  0.25231236  1
  Co  Co127  1  0.50283554  0.50092761  0.25167406  1
