# generated using pymatgen
data_Fe45Co19
_symmetry_space_group_name_H-M   'P 1'
_cell_length_a   11.41465269
_cell_length_b   11.41389392
_cell_length_c   11.41449214
_cell_angle_alpha   89.99046424
_cell_angle_beta   90.00566737
_cell_angle_gamma   90.00777962
_symmetry_Int_Tables_number   1
_chemical_formula_structural   Fe45Co19
_chemical_formula_sum   'Fe90 Co38'
_cell_volume   1487.14431448
_cell_formula_units_Z   2
loop_
 _symmetry_equiv_pos_site_id
 _symmetry_equiv_pos_as_xyz
  1  'x, y, z'
loop_
 _atom_site_type_symbol
 _atom_site_label
 _atom_site_symmetry_multiplicity
 _atom_site_fract_x
 _atom_site_fract_y
 _atom_site_fract_z
 _atom_site_occupancy
  Fe  Fe0  1  0.75255475  0.25457505  0.25116827  1
  Fe  Fe1  1  0.74913414  0.25279493  0.75248721  1
  Fe  Fe2  1  0.11994204  0.37735398  0.37349161  1
  Fe  Fe3  1  0.87540259  0.12811164  0.62451331  1
  Fe  Fe4  1  0.12611180  0.12706488  0.62582701  1
  Fe  Fe5  1  0.62358760  0.87332139  0.62531307  1
  Fe  Fe6  1  0.75223557  0.49828753  0.50102001  1
  Fe  Fe7  1  -0.00181162  0.25115757  0.24679350  1
  Fe  Fe8  1  0.87574777  0.87416627  0.62269582  1
  Fe  Fe9  1  0.00257966  0.00323354  0.00046957  1
  Fe  Fe10  1  0.62187682  0.87431366  0.87573912  1
  Fe  Fe11  1  0.50037527  0.25093473  0.24989134  1
  Fe  Fe12  1  -0.00122574  0.50184626  0.24065309  1
  Fe  Fe13  1  0.74975606  -0.00122266  0.74973207  1
  Fe  Fe14  1  0.87539877  0.12439682  0.37376848  1
  Fe  Fe15  1  0.11955261  0.87288962  0.37110771  1
  Fe  Fe16  1  0.24842379  -0.00187633  -0.00021094  1
  Fe  Fe17  1  0.62682086  0.12461061  0.12794169  1
  Fe  Fe18  1  -0.00095388  0.74756493  0.74816655  1
  Fe  Fe19  1  0.62470197  0.12956024  0.62478921  1
  Fe  Fe20  1  0.00006620  0.74524960  0.49938621  1
  Fe  Fe21  1  0.49947734  0.00001791  0.25103138  1
  Fe  Fe22  1  0.24955829  0.25338977  0.49988464  1
  Fe  Fe23  1  0.87395087  0.62171006  0.37212055  1
  Fe  Fe24  1  -0.00119617  0.50200195  0.74786373  1
  Fe  Fe25  1  0.37563049  0.12652326  0.87732377  1
  Fe  Fe26  1  0.25063138  -0.00051978  0.75119119  1
  Fe  Fe27  1  0.87318966  0.12381472  0.12514498  1
  Fe  Fe28  1  0.12608251  0.87235101  0.62488554  1
  Fe  Fe29  1  0.74817289  -0.00320626  0.00112577  1
  Fe  Fe30  1  0.49783515  0.74747851  0.25163583  1
  Fe  Fe31  1  0.74857226  0.50072122  0.00047883  1
  Fe  Fe32  1  0.75043804  0.75122121  0.75104999  1
  Fe  Fe33  1  0.24762271  0.49910026  0.49895816  1
  Fe  Fe34  1  0.75234258  -0.00589931  0.24892851  1
  Fe  Fe35  1  0.87732024  0.87422316  0.87796319  1
  Fe  Fe36  1  0.62357464  0.37853949  0.37317592  1
  Fe  Fe37  1  0.12254313  0.37361718  0.62462606  1
  Fe  Fe38  1  0.87344105  0.12329665  0.87553836  1
  Fe  Fe39  1  0.50042912  0.50216225  0.49903430  1
  Fe  Fe40  1  0.87805168  0.37754955  0.87967801  1
  Fe  Fe41  1  0.62752641  0.62522792  0.12873948  1
  Fe  Fe42  1  -0.00023169  0.24862881  0.75245046  1
  Fe  Fe43  1  -0.00131721  0.50237744  0.50419924  1
  Fe  Fe44  1  0.74914238  0.75239928  0.00142051  1
  Fe  Fe45  1  0.75417339  0.75427182  0.24947684  1
  Fe  Fe46  1  0.12772788  0.12870562  0.12426228  1
  Fe  Fe47  1  0.62850107  0.62403575  0.62666309  1
  Fe  Fe48  1  0.37587216  0.12924024  0.62349410  1
  Fe  Fe49  1  0.62202538  0.37602787  0.87777732  1
  Fe  Fe50  1  0.12311619  0.87036215  0.12723794  1
  Fe  Fe51  1  0.62432224  0.37720310  0.12558507  1
  Fe  Fe52  1  0.49777068  0.74598742  0.75323966  1
  Fe  Fe53  1  0.37179406  0.62236274  0.37239360  1
  Fe  Fe54  1  0.11955499  0.37429392  0.88148396  1
  Fe  Fe55  1  0.24968122  0.25553960  0.24879905  1
  Fe  Fe56  1  0.37890806  0.37702848  0.87921152  1
  Fe  Fe57  1  0.24930766  -0.00147575  0.49825900  1
  Fe  Fe58  1  0.49737433  0.74477063  -0.00230961  1
  Fe  Fe59  1  0.24471372  0.50070715  0.00129689  1
  Fe  Fe60  1  0.74954510  -0.00016882  0.49934286  1
  Fe  Fe61  1  0.24827117  0.74916769  0.49538771  1
  Fe  Fe62  1  0.37519753  0.87313499  0.12406440  1
  Fe  Fe63  1  0.25163210  0.25326121  0.75231466  1
  Fe  Fe64  1  0.00180139  0.74248648  0.00394990  1
  Fe  Fe65  1  0.00114984  0.00191526  0.49992570  1
  Fe  Fe66  1  0.00077029  -0.00011488  0.74988720  1
  Fe  Fe67  1  0.37557621  0.87394301  0.62370814  1
  Fe  Fe68  1  0.50059962  0.00196726  0.74984844  1
  Fe  Fe69  1  0.74868795  0.24934715  -0.00032553  1
  Fe  Fe70  1  0.24729368  0.49748151  0.75132612  1
  Fe  Fe71  1  0.62322330  0.37462190  0.62481863  1
  Fe  Fe72  1  0.75096045  0.74934520  0.49805536  1
  Fe  Fe73  1  0.24942934  -0.00334869  0.25036005  1
  Fe  Fe74  1  0.37436100  0.12659158  0.37444953  1
  Fe  Fe75  1  0.37323132  0.12672271  0.12494689  1
  Fe  Fe76  1  0.37709879  0.37618556  0.37582872  1
  Fe  Fe77  1  0.62367431  0.87415749  0.37394184  1
  Fe  Fe78  1  0.75175243  0.25299167  0.49629397  1
  Fe  Fe79  1  0.36888285  0.62394265  0.12651908  1
  Fe  Fe80  1  0.50166504  0.00231999  0.49828481  1
  Fe  Fe81  1  0.12571871  0.12715229  0.37326054  1
  Fe  Fe82  1  0.25190178  0.75002465  0.75441739  1
  Fe  Fe83  1  0.37697649  0.37691140  0.12197086  1
  Fe  Fe84  1  0.50181374  0.00205911  0.00098191  1
  Fe  Fe85  1  0.37094197  0.62256978  0.62637925  1
  Fe  Fe86  1  0.50136026  0.50155701  0.75155936  1
  Fe  Fe87  1  0.87359013  0.62315508  0.87513262  1
  Fe  Fe88  1  0.12384403  0.87300188  0.87569940  1
  Fe  Fe89  1  0.50032425  0.74651769  0.49862966  1
  Co  Co90  1  0.25165316  0.25214828  -0.00152638  1
  Co  Co91  1  0.37752423  0.87762522  0.87629932  1
  Co  Co92  1  0.37095327  0.61905482  0.87590029  1
  Co  Co93  1  -0.00254279  0.24478133  0.00105844  1
  Co  Co94  1  0.00099678  0.00293047  0.24828828  1
  Co  Co95  1  0.12421117  0.62493461  0.87337772  1
  Co  Co96  1  0.62021714  0.87277582  0.12533020  1
  Co  Co97  1  0.13321470  0.62888789  0.13110042  1
  Co  Co98  1  0.88119139  0.87580424  0.12220113  1
  Co  Co99  1  0.25216397  0.75399759  0.25491765  1
  Co  Co100  1  0.49914938  0.25212304  0.75260399  1
  Co  Co101  1  0.88030143  0.37881887  0.37364311  1
  Co  Co102  1  0.12775394  0.12631764  0.87463570  1
  Co  Co103  1  0.37840576  0.87610306  0.37646597  1
  Co  Co104  1  0.12916722  0.62570270  0.62637063  1
  Co  Co105  1  0.50153350  0.25087683  0.49665738  1
  Co  Co106  1  0.62904299  0.62418165  0.37159915  1
  Co  Co107  1  0.37704188  0.37699530  0.62451075  1
  Co  Co108  1  0.62931101  0.62503204  0.87467376  1
  Co  Co109  1  0.87629670  0.37152715  0.62604934  1
  Co  Co110  1  0.75189068  0.49619410  0.24880996  1
  Co  Co111  1  0.62728427  0.12470443  0.37145449  1
  Co  Co112  1  0.00196478  0.50752566  0.00648517  1
  Co  Co113  1  0.87092111  0.62495095  0.62688486  1
  Co  Co114  1  0.25071256  0.75049568  -0.00315128  1
  Co  Co115  1  0.00005573  0.24927423  0.49810849  1
  Co  Co116  1  -0.00537957  0.74467989  0.24766458  1
  Co  Co117  1  0.50259941  0.50603321  0.00248683  1
  Co  Co118  1  0.24953931  0.49338642  0.24901018  1
  Co  Co119  1  0.12381249  0.62151251  0.36902100  1
  Co  Co120  1  0.62516661  0.12440644  0.87505916  1
  Co  Co121  1  0.87490470  0.37486443  0.11989828  1
  Co  Co122  1  0.12201068  0.37204788  0.12055225  1
  Co  Co123  1  0.86753795  0.62414871  0.12399837  1
  Co  Co124  1  0.50203452  0.24811024  0.00277887  1
  Co  Co125  1  0.49870357  0.50197025  0.24937037  1
  Co  Co126  1  0.75050721  0.49621182  0.75059024  1
  Co  Co127  1  0.87896423  0.87584354  0.37579883  1
