# generated using pymatgen
data_Fe45Co19
_symmetry_space_group_name_H-M   'P 1'
_cell_length_a   11.41391098
_cell_length_b   11.41316482
_cell_length_c   11.41437019
_cell_angle_alpha   90.00300332
_cell_angle_beta   89.99195916
_cell_angle_gamma   90.00246730
_symmetry_Int_Tables_number   1
_chemical_formula_structural   Fe45Co19
_chemical_formula_sum   'Fe90 Co38'
_cell_volume   1486.93682983
_cell_formula_units_Z   2
loop_
 _symmetry_equiv_pos_site_id
 _symmetry_equiv_pos_as_xyz
  1  'x, y, z'
loop_
 _atom_site_type_symbol
 _atom_site_label
 _atom_site_symmetry_multiplicity
 _atom_site_fract_x
 _atom_site_fract_y
 _atom_site_fract_z
 _atom_site_occupancy
  Fe  Fe0  1  0.00010768  0.24843816  0.49577715  1
  Fe  Fe1  1  0.62558792  0.36798820  0.87479749  1
  Fe  Fe2  1  0.74924728  0.00300974  0.00100333  1
  Fe  Fe3  1  0.50063833  0.00196271  -0.00055433  1
  Fe  Fe4  1  0.87247626  0.87833851  0.87442788  1
  Fe  Fe5  1  0.12410071  0.62516843  0.62515328  1
  Fe  Fe6  1  -0.00211089  0.75137276  0.49839321  1
  Fe  Fe7  1  0.62606838  0.12924544  0.37895396  1
  Fe  Fe8  1  0.75064577  0.49746598  0.24765279  1
  Fe  Fe9  1  0.50076065  0.00453183  0.25008193  1
  Fe  Fe10  1  0.37499943  0.62210022  0.87481177  1
  Fe  Fe11  1  0.74882827  0.25044706  0.25107970  1
  Fe  Fe12  1  0.50052428  0.75034365  0.75035745  1
  Fe  Fe13  1  0.62580232  0.87729739  0.37441195  1
  Fe  Fe14  1  0.87538238  0.37516017  0.37391709  1
  Fe  Fe15  1  0.12500207  0.12679754  0.12348236  1
  Fe  Fe16  1  0.12515831  0.62376447  0.87515924  1
  Fe  Fe17  1  0.00061200  0.49851175  -0.00004754  1
  Fe  Fe18  1  0.24904197  0.50020283  0.74819281  1
  Fe  Fe19  1  0.25122655  0.74833836  0.00253321  1
  Fe  Fe20  1  0.62510093  0.87501053  0.12452690  1
  Fe  Fe21  1  0.24976504  0.00100493  0.74813965  1
  Fe  Fe22  1  -0.00173610  0.00172730  0.00257711  1
  Fe  Fe23  1  0.12074322  0.87123378  0.12581978  1
  Fe  Fe24  1  0.87762570  0.36975863  0.12205766  1
  Fe  Fe25  1  0.87473434  0.62353797  0.62663254  1
  Fe  Fe26  1  0.37546219  0.37440671  0.37398423  1
  Fe  Fe27  1  0.24974795  0.50123036  0.24786427  1
  Fe  Fe28  1  0.12586433  0.12710182  0.62390989  1
  Fe  Fe29  1  0.37512684  0.87463925  0.62553655  1
  Fe  Fe30  1  0.87748169  0.37194593  0.62794979  1
  Fe  Fe31  1  0.75109698  0.75176860  0.50069215  1
  Fe  Fe32  1  0.12360839  0.62389650  0.37231641  1
  Fe  Fe33  1  0.12414270  0.37404381  0.12559325  1
  Fe  Fe34  1  0.25033457  0.25019468  -0.00193852  1
  Fe  Fe35  1  0.75055020  0.75144582  -0.00172095  1
  Fe  Fe36  1  0.62610012  0.62506124  0.62656291  1
  Fe  Fe37  1  -0.00068828  0.24694462  0.75623016  1
  Fe  Fe38  1  0.62491601  0.36787257  0.62446482  1
  Fe  Fe39  1  0.37517800  0.12481625  0.87427317  1
  Fe  Fe40  1  0.37543413  0.37391351  0.62749223  1
  Fe  Fe41  1  -0.00133431  0.75067517  0.75151008  1
  Fe  Fe42  1  0.50112664  0.49896559  0.24995520  1
  Fe  Fe43  1  0.00125013  0.00267809  0.75198041  1
  Fe  Fe44  1  0.24593430  -0.00188215  0.24992390  1
  Fe  Fe45  1  0.12250707  0.62666728  0.12583500  1
  Fe  Fe46  1  0.62588313  0.62505680  0.87348926  1
  Fe  Fe47  1  0.37609222  0.87690318  0.12608258  1
  Fe  Fe48  1  0.50153552  0.75022905  0.50067751  1
  Fe  Fe49  1  0.74924652  0.49575166  0.50131403  1
  Fe  Fe50  1  0.62633501  0.87661094  0.62804645  1
  Fe  Fe51  1  0.87510357  0.88013048  0.37222179  1
  Fe  Fe52  1  0.24887033  0.49741604  0.50108743  1
  Fe  Fe53  1  0.62301279  0.12982475  0.12245748  1
  Fe  Fe54  1  0.62429398  0.62503169  0.12514778  1
  Fe  Fe55  1  0.24989458  0.75006859  0.49929145  1
  Fe  Fe56  1  0.00141702  0.49784949  0.49999688  1
  Fe  Fe57  1  0.24987785  0.74963354  0.74964957  1
  Fe  Fe58  1  0.87402555  0.62186641  0.37548631  1
  Fe  Fe59  1  0.37546941  0.87681257  0.87438666  1
  Fe  Fe60  1  0.50115685  0.49841424  0.50168757  1
  Fe  Fe61  1  0.74950563  0.49527222  0.75001792  1
  Fe  Fe62  1  0.37527070  0.62471138  0.37531646  1
  Fe  Fe63  1  0.87678986  0.62690520  0.12350556  1
  Fe  Fe64  1  0.74609596  0.00867261  0.75102889  1
  Fe  Fe65  1  0.75063675  0.00424472  0.50245709  1
  Fe  Fe66  1  0.00196715  0.24699911  0.25319133  1
  Fe  Fe67  1  0.75174433  0.75078473  0.25000354  1
  Fe  Fe68  1  0.50088380  0.49792043  -0.00137721  1
  Fe  Fe69  1  0.74965446  0.49663790  0.00094420  1
  Fe  Fe70  1  0.12361729  0.37161650  0.62638591  1
  Fe  Fe71  1  0.37327411  0.87622878  0.37480773  1
  Fe  Fe72  1  0.49927703  0.00169082  0.50185532  1
  Fe  Fe73  1  0.49900018  0.75026076  0.24967174  1
  Fe  Fe74  1  0.37428511  0.12779958  0.62525599  1
  Fe  Fe75  1  0.00205391  0.00250826  0.49640111  1
  Fe  Fe76  1  0.49988633  0.75086835  0.00003968  1
  Fe  Fe77  1  0.37071586  0.12483406  0.37599344  1
  Fe  Fe78  1  0.37541170  0.37483337  0.12495577  1
  Fe  Fe79  1  0.87459400  0.62147155  0.87313059  1
  Fe  Fe80  1  0.87474890  0.87882339  0.62724649  1
  Fe  Fe81  1  0.37446676  0.37537592  0.87327058  1
  Fe  Fe82  1  0.25024621  0.24997592  0.25099653  1
  Fe  Fe83  1  0.62679839  0.62302565  0.37473086  1
  Fe  Fe84  1  0.12573182  0.87618214  0.87596899  1
  Fe  Fe85  1  0.75106509  0.00320827  0.24588584  1
  Fe  Fe86  1  0.62216015  0.37130878  0.12494777  1
  Fe  Fe87  1  0.12544365  0.37654012  0.87440846  1
  Fe  Fe88  1  0.12460478  0.87576273  0.62374316  1
  Fe  Fe89  1  0.25002507  0.00031239  0.00125263  1
  Co  Co90  1  0.87313943  0.12404196  0.37264615  1
  Co  Co91  1  0.49411015  0.24946093  0.00120843  1
  Co  Co92  1  0.49956387  0.24817953  0.74980386  1
  Co  Co93  1  0.62194156  0.13003612  0.87820279  1
  Co  Co94  1  0.12700330  0.12158588  0.87679804  1
  Co  Co95  1  0.49841846  0.24701847  0.25103311  1
  Co  Co96  1  0.87914852  0.12534528  0.62478102  1
  Co  Co97  1  0.37551546  0.62364723  0.62565294  1
  Co  Co98  1  0.87469985  0.12550457  0.87953173  1
  Co  Co99  1  0.62602876  0.87640338  0.87418599  1
  Co  Co100  1  0.37162796  0.12404138  0.12558664  1
  Co  Co101  1  0.25114595  0.74969673  0.24785462  1
  Co  Co102  1  0.75492595  0.25000391  0.50038446  1
  Co  Co103  1  0.12548380  0.87464954  0.37558143  1
  Co  Co104  1  0.00227120  0.00250632  0.24894962  1
  Co  Co105  1  0.87683212  0.12964138  0.12467342  1
  Co  Co106  1  0.25011566  0.25355032  0.49978013  1
  Co  Co107  1  0.87492408  0.37473960  0.87581316  1
  Co  Co108  1  0.62373859  0.13005698  0.62167833  1
  Co  Co109  1  0.24845139  0.49942143  0.00151824  1
  Co  Co110  1  0.75079668  0.24910513  -0.00099081  1
  Co  Co111  1  0.75223161  0.75042444  0.74971952  1
  Co  Co112  1  0.49620269  0.25033575  0.49823792  1
  Co  Co113  1  0.50148853  0.00211564  0.74905081  1
  Co  Co114  1  0.37750589  0.62221102  0.12328244  1
  Co  Co115  1  0.25013988  -0.00024444  0.50290654  1
  Co  Co116  1  0.00096078  0.49927865  0.75016433  1
  Co  Co117  1  0.50248813  0.49783643  0.74993710  1
  Co  Co118  1  0.24865594  0.24892032  0.75221806  1
  Co  Co119  1  0.62491192  0.37347584  0.37542124  1
  Co  Co120  1  0.12938017  0.12498713  0.37700134  1
  Co  Co121  1  0.87533750  0.87481468  0.12463680  1
  Co  Co122  1  -0.00178514  0.74995543  -0.00481759  1
  Co  Co123  1  -0.00326389  0.75110309  0.25351349  1
  Co  Co124  1  0.12481554  0.37669932  0.37266607  1
  Co  Co125  1  -0.00248586  0.49915754  0.24755566  1
  Co  Co126  1  0.75320220  0.24517386  0.74962955  1
  Co  Co127  1  0.00398960  0.24960014  -0.00460896  1
