# generated using pymatgen
data_Fe45Co19
_symmetry_space_group_name_H-M   'P 1'
_cell_length_a   11.41453077
_cell_length_b   11.41452272
_cell_length_c   11.41595022
_cell_angle_alpha   89.99829936
_cell_angle_beta   89.99069900
_cell_angle_gamma   89.99865061
_symmetry_Int_Tables_number   1
_chemical_formula_structural   Fe45Co19
_chemical_formula_sum   'Fe90 Co38'
_cell_volume   1487.40035384
_cell_formula_units_Z   2
loop_
 _symmetry_equiv_pos_site_id
 _symmetry_equiv_pos_as_xyz
  1  'x, y, z'
loop_
 _atom_site_type_symbol
 _atom_site_label
 _atom_site_symmetry_multiplicity
 _atom_site_fract_x
 _atom_site_fract_y
 _atom_site_fract_z
 _atom_site_occupancy
  Fe  Fe0  1  0.87740526  0.62329633  0.12575960  1
  Fe  Fe1  1  0.37816269  0.62129628  0.62727464  1
  Fe  Fe2  1  0.49837088  0.74844455  0.50041160  1
  Fe  Fe3  1  0.49938133  0.25007379  0.24806644  1
  Fe  Fe4  1  0.74847266  0.00029529  0.50026422  1
  Fe  Fe5  1  0.12617956  0.87647451  0.87681548  1
  Fe  Fe6  1  0.12535895  0.62373983  0.87527529  1
  Fe  Fe7  1  0.49928139  0.75077577  0.75018603  1
  Fe  Fe8  1  0.74701325  0.49640184  0.75063856  1
  Fe  Fe9  1  0.25180534  0.50083921  0.50050418  1
  Fe  Fe10  1  0.62379425  0.37157681  0.12234465  1
  Fe  Fe11  1  0.12292562  0.37486130  0.12230798  1
  Fe  Fe12  1  0.87689245  0.37281462  0.62151469  1
  Fe  Fe13  1  0.00199440  0.50115372  0.49873300  1
  Fe  Fe14  1  0.25036061  0.25142688  0.75093750  1
  Fe  Fe15  1  0.24955708  0.50125219  0.24753567  1
  Fe  Fe16  1  0.37382931  0.62531578  0.37116866  1
  Fe  Fe17  1  0.49501355  0.24346691  0.00070943  1
  Fe  Fe18  1  0.12634394  0.12595788  0.12681676  1
  Fe  Fe19  1  0.87488648  0.62438600  0.87427293  1
  Fe  Fe20  1  0.50016672  0.74969146  0.00091328  1
  Fe  Fe21  1  0.37467726  0.62385856  0.87739603  1
  Fe  Fe22  1  0.62338163  0.87417587  0.37462929  1
  Fe  Fe23  1  0.12539572  0.37388609  0.62444506  1
  Fe  Fe24  1  0.74995086  0.74837991  0.49968230  1
  Fe  Fe25  1  0.50321490  0.00110959  0.24717763  1
  Fe  Fe26  1  0.00009510  0.00145978  -0.00004951  1
  Fe  Fe27  1  0.37690676  0.87745193  0.12455103  1
  Fe  Fe28  1  0.37421778  0.37595022  0.87792075  1
  Fe  Fe29  1  0.49878684  0.24891269  0.49967619  1
  Fe  Fe30  1  -0.00274624  0.25076916  0.25592889  1
  Fe  Fe31  1  0.49884777  0.75008422  0.24840740  1
  Fe  Fe32  1  0.62362033  0.62473306  0.12594858  1
  Fe  Fe33  1  0.87421182  0.62493930  0.62662974  1
  Fe  Fe34  1  0.12894416  0.87018027  0.38066868  1
  Fe  Fe35  1  0.74717286  0.50103669  0.50054771  1
  Fe  Fe36  1  0.62357976  0.37466273  0.37550323  1
  Fe  Fe37  1  0.74831582  0.00007952  0.24811995  1
  Fe  Fe38  1  0.12588813  0.37601964  0.37520571  1
  Fe  Fe39  1  0.87731484  0.37576914  0.12483731  1
  Fe  Fe40  1  0.25083712  0.25262480  0.24769958  1
  Fe  Fe41  1  0.87190497  0.12449779  0.87281213  1
  Fe  Fe42  1  0.24781192  -0.00430601  0.25064751  1
  Fe  Fe43  1  0.12317683  0.62340513  0.12528269  1
  Fe  Fe44  1  0.87425605  0.12610543  0.12801152  1
  Fe  Fe45  1  0.62578155  0.12576400  0.62697550  1
  Fe  Fe46  1  0.87481927  0.12617684  0.62134734  1
  Fe  Fe47  1  0.00080241  0.24921225  0.75026864  1
  Fe  Fe48  1  0.12935696  0.12509211  0.87618658  1
  Fe  Fe49  1  0.49818455  0.25140308  0.75125324  1
  Fe  Fe50  1  0.37621335  0.37819196  0.12241385  1
  Fe  Fe51  1  0.25070207  0.75113302  0.74865050  1
  Fe  Fe52  1  0.87428758  0.87584810  0.37551201  1
  Fe  Fe53  1  0.12595122  0.87451555  0.61990883  1
  Fe  Fe54  1  0.62411562  0.87425352  0.62480938  1
  Fe  Fe55  1  0.62577710  0.87705160  0.87660327  1
  Fe  Fe56  1  0.75053461  0.75033060  0.00059947  1
  Fe  Fe57  1  0.00023200  0.24939368  -0.00168960  1
  Fe  Fe58  1  0.74970153  0.75023161  0.24960867  1
  Fe  Fe59  1  0.87640295  0.62195655  0.37379779  1
  Fe  Fe60  1  0.37348173  0.87906268  0.87655281  1
  Fe  Fe61  1  0.50014574  0.00085944  0.75215160  1
  Fe  Fe62  1  0.37444897  0.87798880  0.62430580  1
  Fe  Fe63  1  0.12506259  0.62681339  0.62371197  1
  Fe  Fe64  1  0.62257435  0.62425817  0.37385890  1
  Fe  Fe65  1  0.00265726  0.74930133  0.25269047  1
  Fe  Fe66  1  -0.00029679  0.75241572  0.75067664  1
  Fe  Fe67  1  0.75035958  0.75261316  0.75046351  1
  Fe  Fe68  1  0.62053507  0.37659003  0.62452303  1
  Fe  Fe69  1  0.74937184  0.49664966  0.24930660  1
  Fe  Fe70  1  0.87740122  0.87429635  0.12558933  1
  Fe  Fe71  1  0.00155242  0.49857720  0.75108255  1
  Fe  Fe72  1  0.62371884  0.62389943  0.87238945  1
  Fe  Fe73  1  0.12543595  0.12411952  0.62236819  1
  Fe  Fe74  1  0.00050916  -0.00075981  0.74970737  1
  Fe  Fe75  1  0.37366934  0.12486807  0.62716460  1
  Fe  Fe76  1  0.49828624  0.00186177  0.49818702  1
  Fe  Fe77  1  0.00144182  0.00100409  0.25543166  1
  Fe  Fe78  1  0.37343050  0.12430500  0.37101544  1
  Fe  Fe79  1  0.24948575  0.75053761  0.00390832  1
  Fe  Fe80  1  0.74876755  0.49825955  -0.00063988  1
  Fe  Fe81  1  -0.00056642  0.74961116  -0.00117349  1
  Fe  Fe82  1  0.74901305  -0.00006154  0.00280380  1
  Fe  Fe83  1  0.25063726  0.24840967  0.49919714  1
  Fe  Fe84  1  0.87541652  0.37394133  0.87429462  1
  Fe  Fe85  1  0.25065117  0.49824167  0.75126907  1
  Fe  Fe86  1  0.37586136  0.37583364  0.37593266  1
  Fe  Fe87  1  0.62825827  0.12725982  0.87506349  1
  Fe  Fe88  1  0.62743488  0.12738251  0.37274227  1
  Fe  Fe89  1  0.87613271  0.87628804  0.62366396  1
  Co  Co90  1  0.50046076  0.49844363  0.24908571  1
  Co  Co91  1  0.37088948  0.12220281  0.87242733  1
  Co  Co92  1  0.50112829  0.00474211  0.00048094  1
  Co  Co93  1  0.62415896  0.87319129  0.12432907  1
  Co  Co94  1  0.00136878  0.49876934  0.25189156  1
  Co  Co95  1  0.49891212  0.50165988  0.49890882  1
  Co  Co96  1  0.12924943  0.12645315  0.37262482  1
  Co  Co97  1  0.87482645  0.87647627  0.87726884  1
  Co  Co98  1  0.25209240  0.24897058  0.00207335  1
  Co  Co99  1  0.00252985  0.24841328  0.49553563  1
  Co  Co100  1  0.75021578  0.25272474  0.74733459  1
  Co  Co101  1  -0.00014039  0.49930372  -0.00247095  1
  Co  Co102  1  0.75237595  0.25359731  0.25087206  1
  Co  Co103  1  0.86999144  0.12613281  0.37689309  1
  Co  Co104  1  0.25011562  0.00105498  0.00273068  1
  Co  Co105  1  0.25269304  0.00205717  0.49859389  1
  Co  Co106  1  0.24878527  0.75121564  0.24555439  1
  Co  Co107  1  0.62798582  0.12997601  0.12491380  1
  Co  Co108  1  0.00103431  0.00213352  0.49624985  1
  Co  Co109  1  0.75064331  -0.00055787  0.74854344  1
  Co  Co110  1  0.62307174  0.37049054  0.87811866  1
  Co  Co111  1  0.49923988  0.49706565  0.75312009  1
  Co  Co112  1  0.75416435  0.25072081  0.00037707  1
  Co  Co113  1  0.37120412  0.12124327  0.12971744  1
  Co  Co114  1  0.12628977  0.37371735  0.87609081  1
  Co  Co115  1  0.12766303  0.62654414  0.37641693  1
  Co  Co116  1  0.74682607  0.25130011  0.50090301  1
  Co  Co117  1  0.12121159  0.87658564  0.12366845  1
  Co  Co118  1  0.37602823  0.62389002  0.12491113  1
  Co  Co119  1  0.37585441  0.87496050  0.37307513  1
  Co  Co120  1  0.25636918  0.74760658  0.50250716  1
  Co  Co121  1  0.24759302  -0.00167435  0.74781673  1
  Co  Co122  1  0.87479928  0.37651789  0.37904858  1
  Co  Co123  1  0.37485637  0.37443191  0.62353241  1
  Co  Co124  1  0.24800977  0.50047771  0.00117283  1
  Co  Co125  1  0.62375300  0.62515251  0.62786701  1
  Co  Co126  1  0.50243976  0.50156582  -0.00007417  1
  Co  Co127  1  -0.00338963  0.74813510  0.49927552  1
