# generated using pymatgen
data_Fe45Co19
_symmetry_space_group_name_H-M   'P 1'
_cell_length_a   11.41420364
_cell_length_b   11.41486507
_cell_length_c   11.41497956
_cell_angle_alpha   89.99878545
_cell_angle_beta   90.00391229
_cell_angle_gamma   90.00045760
_symmetry_Int_Tables_number   1
_chemical_formula_structural   Fe45Co19
_chemical_formula_sum   'Fe90 Co38'
_cell_volume   1487.27588408
_cell_formula_units_Z   2
loop_
 _symmetry_equiv_pos_site_id
 _symmetry_equiv_pos_as_xyz
  1  'x, y, z'
loop_
 _atom_site_type_symbol
 _atom_site_label
 _atom_site_symmetry_multiplicity
 _atom_site_fract_x
 _atom_site_fract_y
 _atom_site_fract_z
 _atom_site_occupancy
  Fe  Fe0  1  0.12514766  0.37778655  0.37813534  1
  Fe  Fe1  1  0.24885301  0.49958568  0.00078119  1
  Fe  Fe2  1  0.74853233  0.75061956  0.24704230  1
  Fe  Fe3  1  0.87594335  0.37593462  0.37526748  1
  Fe  Fe4  1  0.87637447  0.37516379  0.87505157  1
  Fe  Fe5  1  0.12344451  0.87395367  0.12252805  1
  Fe  Fe6  1  0.74822886  0.75197183  0.75151148  1
  Fe  Fe7  1  0.37722487  0.37829832  0.12734038  1
  Fe  Fe8  1  0.62638607  0.37400919  0.87810136  1
  Fe  Fe9  1  0.50072309  0.00080178  0.75316846  1
  Fe  Fe10  1  0.12372815  0.37382045  0.12202972  1
  Fe  Fe11  1  0.37564147  0.87697712  0.87739873  1
  Fe  Fe12  1  0.49864408  0.00112422  0.49927633  1
  Fe  Fe13  1  0.37610996  0.12750080  0.62859917  1
  Fe  Fe14  1  0.25130448  -0.00028795  0.50085597  1
  Fe  Fe15  1  0.00272882  0.50225424  0.24907908  1
  Fe  Fe16  1  0.24560049  0.50036632  0.74726121  1
  Fe  Fe17  1  0.87551580  0.87251665  0.37366486  1
  Fe  Fe18  1  0.87568749  0.12639601  0.87416076  1
  Fe  Fe19  1  0.62715314  0.12532784  0.37351578  1
  Fe  Fe20  1  0.75276369  0.75160575  -0.00114214  1
  Fe  Fe21  1  0.87296503  0.12562402  0.37128714  1
  Fe  Fe22  1  0.37295170  0.87717763  0.12317874  1
  Fe  Fe23  1  0.49654443  0.74660239  0.50059464  1
  Fe  Fe24  1  0.00270753  0.50243399  -0.00296688  1
  Fe  Fe25  1  0.74907465  0.25173042  0.74929958  1
  Fe  Fe26  1  0.24859047  0.74790685  0.24813377  1
  Fe  Fe27  1  0.12115079  0.37624862  0.62196704  1
  Fe  Fe28  1  0.62294293  0.12665036  0.62434577  1
  Fe  Fe29  1  0.62447582  0.87495552  0.62473297  1
  Fe  Fe30  1  0.12556319  0.12569334  0.12350446  1
  Fe  Fe31  1  0.75420744  0.74943963  0.50254770  1
  Fe  Fe32  1  0.75072815  0.50161309  0.00061668  1
  Fe  Fe33  1  0.75177856  0.25045484  0.50006649  1
  Fe  Fe34  1  0.37545482  0.87515756  0.62669245  1
  Fe  Fe35  1  0.12645701  0.12414155  0.37553758  1
  Fe  Fe36  1  0.37292810  0.12436441  0.37328419  1
  Fe  Fe37  1  0.25235999  0.74565671  0.50443449  1
  Fe  Fe38  1  0.12272073  0.87389199  0.62509005  1
  Fe  Fe39  1  0.12836317  0.12986110  0.87852815  1
  Fe  Fe40  1  0.74842823  0.49925751  0.24808349  1
  Fe  Fe41  1  0.37278523  0.37831348  0.37272059  1
  Fe  Fe42  1  -0.00223323  -0.00167712  0.49991637  1
  Fe  Fe43  1  0.62393187  0.62501860  0.62665917  1
  Fe  Fe44  1  0.12358760  0.12451228  0.62305450  1
  Fe  Fe45  1  0.50210589  0.49825139  0.75360264  1
  Fe  Fe46  1  0.50023042  0.75149923  0.75228431  1
  Fe  Fe47  1  0.62374880  0.87412799  0.37676003  1
  Fe  Fe48  1  0.87710851  0.12627982  0.62643779  1
  Fe  Fe49  1  0.37777340  0.37341571  0.62690765  1
  Fe  Fe50  1  -0.00462207  0.50531759  0.50332662  1
  Fe  Fe51  1  0.62481458  0.37504292  0.37679452  1
  Fe  Fe52  1  0.24808604  0.74972834  -0.00206208  1
  Fe  Fe53  1  -0.00030772  0.24957517  0.24989669  1
  Fe  Fe54  1  0.75118827  0.49871584  0.74831578  1
  Fe  Fe55  1  0.00326278  0.74827661  0.75046660  1
  Fe  Fe56  1  0.49702147  0.24719733  -0.00186012  1
  Fe  Fe57  1  0.87754087  0.37504276  0.12395451  1
  Fe  Fe58  1  0.37163737  0.12157744  0.12410331  1
  Fe  Fe59  1  0.37299117  0.62534555  0.87316665  1
  Fe  Fe60  1  0.50047495  -0.00169498  0.24932199  1
  Fe  Fe61  1  0.87668395  0.62401015  0.87245609  1
  Fe  Fe62  1  -0.00150577  0.00122255  0.00035112  1
  Fe  Fe63  1  0.37629201  0.62172834  0.12612104  1
  Fe  Fe64  1  0.37075709  0.37062941  0.87235189  1
  Fe  Fe65  1  0.50105969  0.24947363  0.25009567  1
  Fe  Fe66  1  0.00222129  0.74779752  0.25089047  1
  Fe  Fe67  1  0.49633810  0.50316647  0.49843697  1
  Fe  Fe68  1  0.62396750  0.62622878  0.87828886  1
  Fe  Fe69  1  0.75037860  -0.00188182  0.75006617  1
  Fe  Fe70  1  0.24662100  -0.00113604  0.75276542  1
  Fe  Fe71  1  0.62659722  0.12324708  0.87700941  1
  Fe  Fe72  1  0.25053533  0.25119225  0.50120211  1
  Fe  Fe73  1  0.12765271  0.62315360  0.37817887  1
  Fe  Fe74  1  0.75408623  0.50244949  0.50324715  1
  Fe  Fe75  1  0.62291385  0.37404956  0.62313528  1
  Fe  Fe76  1  0.24836999  0.25132592  0.24915045  1
  Fe  Fe77  1  0.62617549  0.87718015  0.11930684  1
  Fe  Fe78  1  0.63068352  0.12267926  0.12553869  1
  Fe  Fe79  1  0.50111439  0.74822122  0.24668110  1
  Fe  Fe80  1  0.62192847  0.37688490  0.12232045  1
  Fe  Fe81  1  0.12745652  0.87389851  0.37666651  1
  Fe  Fe82  1  0.87904390  0.87577757  0.87258716  1
  Fe  Fe83  1  0.37382743  0.87347573  0.37368018  1
  Fe  Fe84  1  0.87628090  0.62621090  0.12570014  1
  Fe  Fe85  1  0.75324007  0.24940957  0.00214294  1
  Fe  Fe86  1  0.62689903  0.62569675  0.37466294  1
  Fe  Fe87  1  0.00270082  0.25248707  0.75145960  1
  Fe  Fe88  1  0.75238454  -0.00172074  0.50131986  1
  Fe  Fe89  1  -0.00012113  -0.00076204  0.24904484  1
  Co  Co90  1  0.24988157  0.75303145  0.75040255  1
  Co  Co91  1  0.12640804  0.62434796  0.87293037  1
  Co  Co92  1  0.87209935  0.12444162  0.12805128  1
  Co  Co93  1  0.24765874  -0.00146057  0.24976235  1
  Co  Co94  1  0.62436674  0.62323683  0.12045792  1
  Co  Co95  1  0.00348198  0.00353739  0.75169089  1
  Co  Co96  1  0.62313456  0.87585607  0.87853083  1
  Co  Co97  1  -0.00075621  0.74791991  -0.00138354  1
  Co  Co98  1  0.50349046  0.25026094  0.75429268  1
  Co  Co99  1  0.37170750  0.62410307  0.37009970  1
  Co  Co100  1  0.49752605  0.24989182  0.49718819  1
  Co  Co101  1  0.75605357  -0.00240023  -0.00280442  1
  Co  Co102  1  0.12460924  0.62625798  0.12188834  1
  Co  Co103  1  0.24645244  -0.00213427  -0.00333970  1
  Co  Co104  1  0.49689721  0.49914317  -0.00528222  1
  Co  Co105  1  0.87674438  0.37156057  0.62576979  1
  Co  Co106  1  0.75024587  0.25599604  0.24909262  1
  Co  Co107  1  0.49740994  0.74918323  0.00111149  1
  Co  Co108  1  0.37749496  0.62420830  0.63156701  1
  Co  Co109  1  0.87806858  0.87406634  0.62870288  1
  Co  Co110  1  -0.00056466  0.24800663  0.49768435  1
  Co  Co111  1  0.25401864  0.50168803  0.50475411  1
  Co  Co112  1  0.87584346  0.62842350  0.63010626  1
  Co  Co113  1  0.37031720  0.12677855  0.87263123  1
  Co  Co114  1  0.12150616  0.87278951  0.87595070  1
  Co  Co115  1  0.87750562  0.87323475  0.12553498  1
  Co  Co116  1  0.12698124  0.37392003  0.87751272  1
  Co  Co117  1  0.49912083  0.00387445  -0.00012910  1
  Co  Co118  1  0.24462605  0.49966572  0.24674991  1
  Co  Co119  1  0.24443781  0.25026402  0.74499592  1
  Co  Co120  1  0.50421370  0.50226747  0.25275861  1
  Co  Co121  1  0.75037426  -0.00537993  0.25150375  1
  Co  Co122  1  0.25360232  0.25240620  0.00429306  1
  Co  Co123  1  0.12281001  0.62600853  0.62557179  1
  Co  Co124  1  0.00016941  0.49742667  0.75058987  1
  Co  Co125  1  -0.00120879  0.74895755  0.49847805  1
  Co  Co126  1  0.87369312  0.62502120  0.37101332  1
  Co  Co127  1  -0.00225879  0.24904989  0.00006005  1
