# generated using pymatgen
data_Fe45Co19
_symmetry_space_group_name_H-M   'P 1'
_cell_length_a   11.41612860
_cell_length_b   11.41443958
_cell_length_c   11.41481722
_cell_angle_alpha   89.99131248
_cell_angle_beta   90.00200365
_cell_angle_gamma   89.99933795
_symmetry_Int_Tables_number   1
_chemical_formula_structural   Fe45Co19
_chemical_formula_sum   'Fe90 Co38'
_cell_volume   1487.45009089
_cell_formula_units_Z   2
loop_
 _symmetry_equiv_pos_site_id
 _symmetry_equiv_pos_as_xyz
  1  'x, y, z'
loop_
 _atom_site_type_symbol
 _atom_site_label
 _atom_site_symmetry_multiplicity
 _atom_site_fract_x
 _atom_site_fract_y
 _atom_site_fract_z
 _atom_site_occupancy
  Fe  Fe0  1  0.12326512  0.62028008  0.37323061  1
  Fe  Fe1  1  -0.00135454  0.00366858  0.25236257  1
  Fe  Fe2  1  -0.00169931  0.00166679  0.50036962  1
  Fe  Fe3  1  0.62360580  0.38052900  0.87978508  1
  Fe  Fe4  1  0.62401007  0.37054768  0.12202293  1
  Fe  Fe5  1  -0.00237408  0.49734011  0.50312965  1
  Fe  Fe6  1  0.37500490  0.62283812  0.37388387  1
  Fe  Fe7  1  0.00214369  0.74997508  0.24985952  1
  Fe  Fe8  1  0.50219116  0.25257876  0.75119842  1
  Fe  Fe9  1  0.75085701  0.00128197  0.50031785  1
  Fe  Fe10  1  0.88015320  0.36923573  0.12403721  1
  Fe  Fe11  1  0.12583540  0.87495668  0.62607817  1
  Fe  Fe12  1  0.87440863  0.87416191  0.12553627  1
  Fe  Fe13  1  0.25271791  0.00183697  0.00238507  1
  Fe  Fe14  1  0.49803099  0.00044009  0.24547445  1
  Fe  Fe15  1  0.12592659  0.87693299  0.12463277  1
  Fe  Fe16  1  0.87391433  0.87602660  0.37395694  1
  Fe  Fe17  1  0.12340945  0.37741652  0.87381061  1
  Fe  Fe18  1  0.25357350  0.00066175  0.24714387  1
  Fe  Fe19  1  0.37680439  0.87184383  0.62553156  1
  Fe  Fe20  1  0.24904917  0.25198189  0.49906270  1
  Fe  Fe21  1  0.12401647  0.62264950  0.12544964  1
  Fe  Fe22  1  0.62383270  0.87536992  0.87669295  1
  Fe  Fe23  1  0.75260716  0.49849890  0.24671579  1
  Fe  Fe24  1  0.87772817  0.12912802  0.12430003  1
  Fe  Fe25  1  0.74965055  0.25212752  0.75385311  1
  Fe  Fe26  1  -0.00137588  0.00162909  0.74902975  1
  Fe  Fe27  1  0.87242010  0.12907017  0.62517226  1
  Fe  Fe28  1  0.24680176  0.25068972  0.00196952  1
  Fe  Fe29  1  0.62683982  0.37868615  0.37583245  1
  Fe  Fe30  1  0.87373244  0.87546084  0.87482604  1
  Fe  Fe31  1  0.12403395  0.62202990  0.87435732  1
  Fe  Fe32  1  0.74992388  0.00080606  0.74971959  1
  Fe  Fe33  1  0.74884665  0.24848027  0.25041893  1
  Fe  Fe34  1  0.25233102  0.74633446  0.75252741  1
  Fe  Fe35  1  0.62438583  0.87714840  0.37280219  1
  Fe  Fe36  1  0.62571028  0.12518168  0.87672191  1
  Fe  Fe37  1  0.87327638  0.62435240  0.62644328  1
  Fe  Fe38  1  0.25166619  0.49875561  0.00123460  1
  Fe  Fe39  1  0.74855438  0.00123949  0.00377721  1
  Fe  Fe40  1  0.62653644  0.12270278  0.37287433  1
  Fe  Fe41  1  -0.00323617  0.49969645  -0.00058751  1
  Fe  Fe42  1  0.12551744  0.62206490  0.62649719  1
  Fe  Fe43  1  0.25281043  0.00051250  0.74832310  1
  Fe  Fe44  1  0.87329128  0.87339289  0.62603109  1
  Fe  Fe45  1  0.37522340  0.87262317  0.87744643  1
  Fe  Fe46  1  0.37644218  0.37712186  0.62678745  1
  Fe  Fe47  1  0.74675422  0.74590469  0.75439149  1
  Fe  Fe48  1  0.24855827  0.49643123  0.24746540  1
  Fe  Fe49  1  -0.00084856  0.74902203  0.75124961  1
  Fe  Fe50  1  -0.00253231  0.25181397  0.75255519  1
  Fe  Fe51  1  0.25120369  0.25177489  0.75053585  1
  Fe  Fe52  1  0.24861668  0.75160214  0.25078004  1
  Fe  Fe53  1  0.50054309  0.49864780  0.24708216  1
  Fe  Fe54  1  0.25007632  0.74981922  0.49798767  1
  Fe  Fe55  1  0.12570282  0.12438074  0.87398743  1
  Fe  Fe56  1  0.12536371  0.87813881  0.37500053  1
  Fe  Fe57  1  -0.00032935  0.00134245  -0.00205839  1
  Fe  Fe58  1  0.49787984  0.00143998  0.50111713  1
  Fe  Fe59  1  0.37618244  0.36793551  0.12705613  1
  Fe  Fe60  1  0.50045471  0.74810033  0.00028676  1
  Fe  Fe61  1  0.37420061  0.37399606  0.37137439  1
  Fe  Fe62  1  0.74899122  0.75141264  0.24975607  1
  Fe  Fe63  1  0.37790530  0.37898451  0.87461593  1
  Fe  Fe64  1  0.87429706  0.62759597  0.12301575  1
  Fe  Fe65  1  0.87640035  0.62505518  0.37284276  1
  Fe  Fe66  1  0.37296413  0.12873118  0.37170839  1
  Fe  Fe67  1  0.62792369  0.62512763  0.12193414  1
  Fe  Fe68  1  0.00155538  0.75134307  -0.00073609  1
  Fe  Fe69  1  0.87662090  0.37198478  0.37416035  1
  Fe  Fe70  1  0.00162196  0.25014287  0.49787528  1
  Fe  Fe71  1  0.50005204  0.74658236  0.49991668  1
  Fe  Fe72  1  0.50198879  0.25186010  0.49864761  1
  Fe  Fe73  1  0.62528250  0.62135145  0.37501844  1
  Fe  Fe74  1  0.24991769  0.49765788  0.50095095  1
  Fe  Fe75  1  0.74910069  0.74894706  0.49842831  1
  Fe  Fe76  1  0.62444374  0.87361533  0.62572715  1
  Fe  Fe77  1  0.62790531  0.38015430  0.62248287  1
  Fe  Fe78  1  0.12660595  0.87599005  0.87423402  1
  Fe  Fe79  1  0.62411190  0.12614097  0.62590541  1
  Fe  Fe80  1  0.37517545  0.12719295  0.87505060  1
  Fe  Fe81  1  0.49955950  0.75054678  0.24958783  1
  Fe  Fe82  1  0.50217701  0.74158109  0.75065204  1
  Fe  Fe83  1  0.25363131  0.00037962  0.50227062  1
  Fe  Fe84  1  0.49856017  0.00366819  0.00378491  1
  Fe  Fe85  1  0.49816592  0.00101157  0.74976462  1
  Fe  Fe86  1  0.37277205  0.62736879  0.12454668  1
  Fe  Fe87  1  0.75210917  0.50096036  0.75338331  1
  Fe  Fe88  1  0.12628443  0.12766716  0.62560972  1
  Fe  Fe89  1  0.00110151  0.74999977  0.49988390  1
  Co  Co90  1  0.12517669  0.37352449  0.62715895  1
  Co  Co91  1  -0.00282902  0.49746876  0.74831173  1
  Co  Co92  1  0.37473856  0.87156499  0.12239902  1
  Co  Co93  1  0.25044540  0.50000324  0.75084600  1
  Co  Co94  1  0.87580259  0.37571718  0.87718279  1
  Co  Co95  1  0.62407618  0.87375667  0.12523985  1
  Co  Co96  1  0.00769676  0.24787365  0.25297122  1
  Co  Co97  1  0.50206128  0.50392761  0.74843307  1
  Co  Co98  1  0.50439612  0.25119856  0.25465878  1
  Co  Co99  1  0.37652568  0.12949984  0.62582247  1
  Co  Co100  1  0.75074248  0.25036791  -0.00252764  1
  Co  Co101  1  0.75037056  0.00193778  0.24589828  1
  Co  Co102  1  0.37550671  0.13326900  0.12757641  1
  Co  Co103  1  0.74981556  0.75294080  -0.00184342  1
  Co  Co104  1  0.37650423  0.87488317  0.37471193  1
  Co  Co105  1  0.87319579  0.12796548  0.37386913  1
  Co  Co106  1  0.87297232  0.12391437  0.87571292  1
  Co  Co107  1  0.62849526  0.62043174  0.62090341  1
  Co  Co108  1  0.62537382  0.61910155  0.88289156  1
  Co  Co109  1  0.37319554  0.62257304  0.62371794  1
  Co  Co110  1  0.12900778  0.12188658  0.37653752  1
  Co  Co111  1  0.23966824  0.25233751  0.24811331  1
  Co  Co112  1  0.74587085  0.24919700  0.49829786  1
  Co  Co113  1  0.75572737  0.50081339  0.49605801  1
  Co  Co114  1  0.49960658  0.24930585  -0.00390909  1
  Co  Co115  1  0.49771491  0.49880382  0.49871311  1
  Co  Co116  1  0.87534520  0.62472004  0.87783057  1
  Co  Co117  1  0.00305501  0.24823141  -0.00469948  1
  Co  Co118  1  0.37659851  0.62162519  0.87769040  1
  Co  Co119  1  0.49673907  0.49904378  0.00736292  1
  Co  Co120  1  0.12307615  0.12305254  0.12343619  1
  Co  Co121  1  0.11939898  0.37749745  0.12295378  1
  Co  Co122  1  -0.00400501  0.49954425  0.24854358  1
  Co  Co123  1  0.12263501  0.37978850  0.37473456  1
  Co  Co124  1  0.62355728  0.13015664  0.12421420  1
  Co  Co125  1  0.87132252  0.37230337  0.62426762  1
  Co  Co126  1  0.24651929  0.74819880  -0.00103980  1
  Co  Co127  1  0.75380819  0.49621675  0.00410489  1
