# generated using pymatgen
data_Fe45Co19
_symmetry_space_group_name_H-M   'P 1'
_cell_length_a   11.41529830
_cell_length_b   11.41579399
_cell_length_c   11.41510126
_cell_angle_alpha   89.99863460
_cell_angle_beta   90.00484503
_cell_angle_gamma   90.00479000
_symmetry_Int_Tables_number   1
_chemical_formula_structural   Fe45Co19
_chemical_formula_sum   'Fe90 Co38'
_cell_volume   1487.55541324
_cell_formula_units_Z   2
loop_
 _symmetry_equiv_pos_site_id
 _symmetry_equiv_pos_as_xyz
  1  'x, y, z'
loop_
 _atom_site_type_symbol
 _atom_site_label
 _atom_site_symmetry_multiplicity
 _atom_site_fract_x
 _atom_site_fract_y
 _atom_site_fract_z
 _atom_site_occupancy
  Fe  Fe0  1  0.50187215  0.25305312  0.00132894  1
  Fe  Fe1  1  0.75177854  0.25234782  0.74874436  1
  Fe  Fe2  1  0.87490349  0.12700909  0.87542959  1
  Fe  Fe3  1  0.37411210  0.62284289  0.62533241  1
  Fe  Fe4  1  0.24975226  -0.00021633  0.24885682  1
  Fe  Fe5  1  0.74987713  0.25060965  0.00154911  1
  Fe  Fe6  1  0.37644690  0.13000044  0.87450230  1
  Fe  Fe7  1  0.50047531  -0.00161254  0.24791196  1
  Fe  Fe8  1  0.87609612  0.37692259  0.37583915  1
  Fe  Fe9  1  0.00029193  0.75005337  0.75021921  1
  Fe  Fe10  1  0.12525882  0.62279773  0.62656353  1
  Fe  Fe11  1  0.37749455  0.62263589  0.87437662  1
  Fe  Fe12  1  0.87790070  0.62596721  0.37449354  1
  Fe  Fe13  1  0.75047899  0.00127761  -0.00009660  1
  Fe  Fe14  1  0.50192341  0.25257895  0.24943837  1
  Fe  Fe15  1  0.37628981  0.37477526  0.37450022  1
  Fe  Fe16  1  0.87556936  0.12335892  0.37375786  1
  Fe  Fe17  1  -0.00222612  0.49632702  0.74802633  1
  Fe  Fe18  1  0.12283701  0.12672902  0.37754761  1
  Fe  Fe19  1  0.62646841  0.12424273  0.37181922  1
  Fe  Fe20  1  -0.00024635  0.00012868  0.00087824  1
  Fe  Fe21  1  0.62556787  0.12359656  0.62867428  1
  Fe  Fe22  1  0.87379983  0.62339747  0.62590054  1
  Fe  Fe23  1  0.87309200  0.62318453  0.12664637  1
  Fe  Fe24  1  0.25282562  0.25689874  0.74772974  1
  Fe  Fe25  1  0.25053868  0.50021525  0.24835953  1
  Fe  Fe26  1  0.50025065  0.24964393  0.49991978  1
  Fe  Fe27  1  0.37513055  0.62523578  0.37352868  1
  Fe  Fe28  1  0.74918377  0.50291096  0.49580052  1
  Fe  Fe29  1  0.50137338  0.75070407  0.50040545  1
  Fe  Fe30  1  0.24834547  0.74842076  0.49865109  1
  Fe  Fe31  1  0.12427644  0.87551478  0.37504080  1
  Fe  Fe32  1  0.12350174  0.12887826  0.62221676  1
  Fe  Fe33  1  0.50068050  0.00008993  0.50069483  1
  Fe  Fe34  1  -0.00415333  0.49961426  0.00108794  1
  Fe  Fe35  1  0.37691585  0.12718267  0.62733587  1
  Fe  Fe36  1  0.37505076  0.12584629  0.37377916  1
  Fe  Fe37  1  0.74911615  0.74699695  0.75264524  1
  Fe  Fe38  1  0.62406455  0.12446844  0.87278135  1
  Fe  Fe39  1  0.62642613  0.87585787  0.62632891  1
  Fe  Fe40  1  0.87295860  0.87346923  0.12401555  1
  Fe  Fe41  1  0.62705156  0.87388664  0.12455152  1
  Fe  Fe42  1  0.50160755  0.74712955  0.00098683  1
  Fe  Fe43  1  0.87427959  0.87592999  0.62556528  1
  Fe  Fe44  1  0.62451300  0.87593458  0.87468670  1
  Fe  Fe45  1  0.24978902  0.00188084  0.49975876  1
  Fe  Fe46  1  0.37338264  0.87440929  0.87611728  1
  Fe  Fe47  1  0.12545774  0.12470742  0.12372078  1
  Fe  Fe48  1  0.50002113  0.75087975  0.74956420  1
  Fe  Fe49  1  0.24816067  0.25136069  0.25042689  1
  Fe  Fe50  1  0.37348650  0.12945488  0.12412481  1
  Fe  Fe51  1  0.24942407  0.74676204  0.75266989  1
  Fe  Fe52  1  -0.00027188  0.00098049  0.74953466  1
  Fe  Fe53  1  0.37004238  0.87103797  0.12428846  1
  Fe  Fe54  1  0.12204715  0.37398390  0.37822997  1
  Fe  Fe55  1  0.00047332  0.74883269  0.50201106  1
  Fe  Fe56  1  0.87591818  0.87311789  0.87590054  1
  Fe  Fe57  1  0.62581291  0.62439401  0.62539290  1
  Fe  Fe58  1  0.49806611  0.00057024  0.00058591  1
  Fe  Fe59  1  0.12320177  0.62280850  0.37421781  1
  Fe  Fe60  1  0.62902951  0.37957147  0.12971375  1
  Fe  Fe61  1  0.12579981  0.87485351  0.62432824  1
  Fe  Fe62  1  0.87598909  0.87351290  0.37497119  1
  Fe  Fe63  1  0.24839507  0.49762131  0.50180784  1
  Fe  Fe64  1  -0.00508196  0.25294313  0.74571502  1
  Fe  Fe65  1  0.37482504  0.87380938  0.37434523  1
  Fe  Fe66  1  0.37315346  0.87440140  0.62494669  1
  Fe  Fe67  1  0.75021801  -0.00218913  0.49819103  1
  Fe  Fe68  1  0.74916926  0.74331969  -0.00383449  1
  Fe  Fe69  1  -0.00038453  0.25122107  0.00132632  1
  Fe  Fe70  1  0.12536510  0.37652315  0.12455585  1
  Fe  Fe71  1  -0.00075626  -0.00127644  0.24680063  1
  Fe  Fe72  1  0.25002290  0.00109026  0.75080968  1
  Fe  Fe73  1  0.25303666  0.49963022  0.00026103  1
  Fe  Fe74  1  -0.00212801  0.25111387  0.24887104  1
  Fe  Fe75  1  0.62671836  0.37802859  0.87583161  1
  Fe  Fe76  1  0.50229185  0.74789488  0.24992606  1
  Fe  Fe77  1  0.50207760  0.49961759  0.49688494  1
  Fe  Fe78  1  0.12580195  0.87401166  0.87910334  1
  Fe  Fe79  1  0.75157350  0.24914308  0.49920688  1
  Fe  Fe80  1  0.12583390  0.12813251  0.87438047  1
  Fe  Fe81  1  0.12448530  0.37527874  0.87448634  1
  Fe  Fe82  1  0.00504588  0.74893293  0.24483673  1
  Fe  Fe83  1  0.62703050  0.37565529  0.62259104  1
  Fe  Fe84  1  0.49972626  0.50024294  0.00539973  1
  Fe  Fe85  1  0.74735584  0.74862890  0.25280132  1
  Fe  Fe86  1  0.62784004  0.12475124  0.12751386  1
  Fe  Fe87  1  0.12135006  0.62323924  0.87667506  1
  Fe  Fe88  1  0.87163238  0.37716387  0.12545288  1
  Fe  Fe89  1  0.49992006  0.49647595  0.74870210  1
  Co  Co90  1  0.50189405  0.25487106  0.75012539  1
  Co  Co91  1  0.75101872  -0.00107265  0.24968817  1
  Co  Co92  1  -0.00006140  -0.00060898  0.50079584  1
  Co  Co93  1  0.75046104  0.74934062  0.49987156  1
  Co  Co94  1  0.75045786  0.50020288  0.75266154  1
  Co  Co95  1  0.75148502  -0.00039198  0.75315146  1
  Co  Co96  1  0.62768897  0.62270917  0.12686976  1
  Co  Co97  1  0.12340799  0.37326972  0.62241232  1
  Co  Co98  1  -0.00538836  0.25056627  0.50152300  1
  Co  Co99  1  0.62302834  0.62720155  0.37555054  1
  Co  Co100  1  0.50033180  0.50084292  0.25085844  1
  Co  Co101  1  0.24914985  0.74460746  -0.00148445  1
  Co  Co102  1  0.87930405  0.62414088  0.87284856  1
  Co  Co103  1  0.12528312  0.62169278  0.12188042  1
  Co  Co104  1  0.62018674  0.62158685  0.87337714  1
  Co  Co105  1  0.87349770  0.12148016  0.62462430  1
  Co  Co106  1  0.25231710  0.00370905  -0.00138466  1
  Co  Co107  1  0.37498054  0.37312708  0.12691151  1
  Co  Co108  1  0.49822445  -0.00162357  0.75127800  1
  Co  Co109  1  0.87193220  0.37955968  0.62172041  1
  Co  Co110  1  0.62537500  0.37252818  0.37395324  1
  Co  Co111  1  0.37728892  0.37677665  0.62218144  1
  Co  Co112  1  0.12890915  0.87611758  0.12085510  1
  Co  Co113  1  0.24877958  0.25251258  -0.00002245  1
  Co  Co114  1  0.75124565  0.50422028  -0.00331123  1
  Co  Co115  1  0.24532883  0.74788663  0.25046203  1
  Co  Co116  1  0.62416935  0.87537528  0.37487831  1
  Co  Co117  1  0.37689034  0.37556369  0.87728807  1
  Co  Co118  1  0.24985609  0.49815137  0.75054743  1
  Co  Co119  1  -0.00007276  0.49941134  0.24881237  1
  Co  Co120  1  0.87491571  0.12568283  0.12380476  1
  Co  Co121  1  0.87372358  0.37363815  0.87691866  1
  Co  Co122  1  0.25300722  0.25121802  0.50001918  1
  Co  Co123  1  -0.00106691  0.74883712  0.00345651  1
  Co  Co124  1  0.75347558  0.25085128  0.25051945  1
  Co  Co125  1  0.74941912  0.50174290  0.25626789  1
  Co  Co126  1  0.37484685  0.62714484  0.12753127  1
  Co  Co127  1  0.00060907  0.50176993  0.50106191  1
