# generated using pymatgen
data_Fe45Co19
_symmetry_space_group_name_H-M   'P 1'
_cell_length_a   11.42317289
_cell_length_b   11.42343185
_cell_length_c   11.42341198
_cell_angle_alpha   90.00030095
_cell_angle_beta   90.00509699
_cell_angle_gamma   90.00052740
_symmetry_Int_Tables_number   1
_chemical_formula_structural   Fe45Co19
_chemical_formula_sum   'Fe90 Co38'
_cell_volume   1490.66200826
_cell_formula_units_Z   2
loop_
 _symmetry_equiv_pos_site_id
 _symmetry_equiv_pos_as_xyz
  1  'x, y, z'
loop_
 _atom_site_type_symbol
 _atom_site_label
 _atom_site_symmetry_multiplicity
 _atom_site_fract_x
 _atom_site_fract_y
 _atom_site_fract_z
 _atom_site_occupancy
  Fe  Fe0  1  0.24843616  0.50095836  -0.00028220  1
  Fe  Fe1  1  0.62482109  0.62585933  0.62443987  1
  Fe  Fe2  1  0.49989523  0.49952560  0.25092391  1
  Fe  Fe3  1  0.62507942  0.62562830  0.37589291  1
  Fe  Fe4  1  0.62508133  0.37431642  0.87323719  1
  Fe  Fe5  1  0.75006950  0.24685576  -0.00125238  1
  Fe  Fe6  1  0.62709338  0.87471489  0.37662107  1
  Fe  Fe7  1  0.12823722  0.87408348  0.62601391  1
  Fe  Fe8  1  0.12864009  0.12559428  0.37394616  1
  Fe  Fe9  1  0.00323240  -0.00288471  0.25047864  1
  Fe  Fe10  1  0.37438366  0.37720770  0.87300619  1
  Fe  Fe11  1  0.12512318  0.37353108  0.37722083  1
  Fe  Fe12  1  0.49788221  0.24848354  0.25170806  1
  Fe  Fe13  1  0.12406552  0.62618535  0.62460801  1
  Fe  Fe14  1  0.49901088  0.24807685  -0.00236892  1
  Fe  Fe15  1  0.37459001  0.87508870  0.37876476  1
  Fe  Fe16  1  0.62310891  0.12404187  0.12597160  1
  Fe  Fe17  1  0.12329644  0.12371728  0.87419593  1
  Fe  Fe18  1  0.87370770  0.62638407  0.87413360  1
  Fe  Fe19  1  0.37446469  0.62264214  0.87272767  1
  Fe  Fe20  1  0.12404389  0.62431237  0.87244176  1
  Fe  Fe21  1  0.12427469  0.37594707  0.87391954  1
  Fe  Fe22  1  0.87644605  0.37211645  0.62268535  1
  Fe  Fe23  1  0.12305364  0.12645035  0.62498868  1
  Fe  Fe24  1  0.75089230  0.50127239  0.00134108  1
  Fe  Fe25  1  0.88007058  0.62605458  0.37564887  1
  Fe  Fe26  1  0.24586847  0.75313148  0.25328868  1
  Fe  Fe27  1  0.75066652  0.00090220  0.24998867  1
  Fe  Fe28  1  0.24994505  0.00196503  0.50092914  1
  Fe  Fe29  1  0.62621294  0.12240824  0.87205912  1
  Fe  Fe30  1  0.75375955  0.50062863  0.24856905  1
  Fe  Fe31  1  0.62730267  0.87478581  0.62447806  1
  Fe  Fe32  1  -0.00104463  0.49953685  0.00259808  1
  Fe  Fe33  1  0.11962965  0.62676097  0.37654725  1
  Fe  Fe34  1  -0.00308341  0.24806705  0.75077203  1
  Fe  Fe35  1  0.00211806  0.25203823  0.24907028  1
  Fe  Fe36  1  0.50071529  0.75151460  0.25129943  1
  Fe  Fe37  1  0.37795514  0.37497000  0.62569924  1
  Fe  Fe38  1  0.62521816  0.87609200  0.12434120  1
  Fe  Fe39  1  0.24768705  0.49955277  0.25130955  1
  Fe  Fe40  1  0.49811534  -0.00068109  0.25165916  1
  Fe  Fe41  1  0.37255711  0.87853500  0.87003786  1
  Fe  Fe42  1  0.00100866  0.75195730  -0.00045755  1
  Fe  Fe43  1  0.37415893  0.37281354  0.37740293  1
  Fe  Fe44  1  0.24865565  0.49991249  0.50112366  1
  Fe  Fe45  1  -0.00111623  0.50001128  0.74800804  1
  Fe  Fe46  1  0.87541140  0.37448110  0.87637678  1
  Fe  Fe47  1  0.87615978  0.87506479  0.37674860  1
  Fe  Fe48  1  0.75133199  0.49963306  0.50060061  1
  Fe  Fe49  1  0.00035419  0.00102019  0.50076171  1
  Fe  Fe50  1  0.37629830  0.12451347  0.62618335  1
  Fe  Fe51  1  0.37609970  0.62608031  0.37581333  1
  Fe  Fe52  1  0.12292422  0.37274091  0.62462402  1
  Fe  Fe53  1  0.87563252  0.37284661  0.37581049  1
  Fe  Fe54  1  0.50058208  0.50048772  0.00036898  1
  Fe  Fe55  1  0.00113693  0.24932382  0.00060984  1
  Fe  Fe56  1  0.12293766  0.62582217  0.12661414  1
  Fe  Fe57  1  0.24966155  0.24990958  -0.00131511  1
  Fe  Fe58  1  0.62609793  0.62656340  0.87417297  1
  Fe  Fe59  1  0.62510267  0.12511077  0.37551952  1
  Fe  Fe60  1  0.87564910  0.12577217  0.37543401  1
  Fe  Fe61  1  0.87645607  0.12493843  0.12519671  1
  Fe  Fe62  1  0.75065740  0.49912385  0.74857320  1
  Fe  Fe63  1  -0.00156234  0.00080694  0.74955457  1
  Fe  Fe64  1  0.75117374  0.00263650  0.50077002  1
  Fe  Fe65  1  0.62307501  0.37277570  0.62576478  1
  Fe  Fe66  1  0.50037936  0.00020990  0.50175794  1
  Fe  Fe67  1  0.62720856  0.12742843  0.62744544  1
  Fe  Fe68  1  0.62620112  0.37316253  0.12588321  1
  Fe  Fe69  1  0.37612103  0.62496959  0.62400114  1
  Fe  Fe70  1  0.24692655  -0.00176752  -0.00208396  1
  Fe  Fe71  1  0.37444007  0.12183223  0.87295075  1
  Fe  Fe72  1  0.62611999  0.37354559  0.37518837  1
  Fe  Fe73  1  0.75258362  0.74865310  0.50062860  1
  Fe  Fe74  1  0.37346451  0.62687821  0.12644889  1
  Fe  Fe75  1  0.87329753  0.87568808  0.62469696  1
  Fe  Fe76  1  0.62496317  0.62642664  0.12500181  1
  Fe  Fe77  1  0.49885549  0.75228845  -0.00231898  1
  Fe  Fe78  1  -0.00162198  0.75060022  0.74838026  1
  Fe  Fe79  1  0.87504554  0.87606200  0.12353970  1
  Fe  Fe80  1  0.37259837  0.12264730  0.12577759  1
  Fe  Fe81  1  0.62739643  0.87800009  0.87460980  1
  Fe  Fe82  1  0.24974444  0.24975929  0.74968759  1
  Fe  Fe83  1  0.37297088  0.87480832  0.12456152  1
  Fe  Fe84  1  0.12745827  0.12340997  0.12638444  1
  Fe  Fe85  1  0.87384257  0.87711613  0.87641606  1
  Fe  Fe86  1  0.75231949  0.74987591  0.24939474  1
  Fe  Fe87  1  0.24832526  0.75069741  -0.00383589  1
  Fe  Fe88  1  0.37377022  0.37537277  0.12429992  1
  Fe  Fe89  1  0.49916262  0.75251368  0.74835430  1
  Co  Co90  1  0.50161927  -0.00125383  0.74712160  1
  Co  Co91  1  0.87547452  0.12291895  0.87643761  1
  Co  Co92  1  -0.00061471  0.49561351  0.24885517  1
  Co  Co93  1  0.87426684  0.62437337  0.62577692  1
  Co  Co94  1  0.49894555  -0.00048893  -0.00036044  1
  Co  Co95  1  0.00112874  0.24744340  0.49745574  1
  Co  Co96  1  0.74998511  0.24722961  0.25084125  1
  Co  Co97  1  0.00082175  0.75528563  0.24936618  1
  Co  Co98  1  0.24969784  0.74814536  0.49935377  1
  Co  Co99  1  0.50046358  0.24791632  0.49939944  1
  Co  Co100  1  -0.00118489  0.75216754  0.50451437  1
  Co  Co101  1  0.75323906  0.00134191  0.74871846  1
  Co  Co102  1  0.87813009  0.62721523  0.12514489  1
  Co  Co103  1  0.00000053  0.49922758  0.50163469  1
  Co  Co104  1  0.37131881  0.87607116  0.62469877  1
  Co  Co105  1  0.50070368  0.49965185  0.49853950  1
  Co  Co106  1  0.25077474  0.24930309  0.50356980  1
  Co  Co107  1  0.49837416  0.24832842  0.75250737  1
  Co  Co108  1  0.75014921  0.75111721  0.74961787  1
  Co  Co109  1  0.12354035  0.87537120  0.87060345  1
  Co  Co110  1  0.12380668  0.87520713  0.38076045  1
  Co  Co111  1  0.74965003  0.24957573  0.50045716  1
  Co  Co112  1  0.74977019  0.75074155  0.00082204  1
  Co  Co113  1  0.12683289  0.37532153  0.12295206  1
  Co  Co114  1  0.50175414  0.50181415  0.75027744  1
  Co  Co115  1  0.37243979  0.12450352  0.37533991  1
  Co  Co116  1  0.74972067  0.00250855  0.00164182  1
  Co  Co117  1  0.25049727  0.25183905  0.24954413  1
  Co  Co118  1  0.24679340  0.00338712  0.74831499  1
  Co  Co119  1  0.75368205  0.25033192  0.75058105  1
  Co  Co120  1  0.50030531  0.75151279  0.50093196  1
  Co  Co121  1  0.24824084  0.49922491  0.74676915  1
  Co  Co122  1  0.24977374  -0.00466110  0.25225059  1
  Co  Co123  1  0.00195837  -0.00006502  0.00039309  1
  Co  Co124  1  0.87547885  0.12639921  0.62289841  1
  Co  Co125  1  0.12658940  0.87495338  0.12277082  1
  Co  Co126  1  0.87280208  0.37148829  0.12375238  1
  Co  Co127  1  0.25098694  0.74804300  0.75065748  1
