# generated using pymatgen
data_Fe45Co19
_symmetry_space_group_name_H-M   'P 1'
_cell_length_a   11.41575762
_cell_length_b   11.41653871
_cell_length_c   11.41462309
_cell_angle_alpha   89.99932812
_cell_angle_beta   89.98989877
_cell_angle_gamma   89.99608333
_symmetry_Int_Tables_number   1
_chemical_formula_structural   Fe45Co19
_chemical_formula_sum   'Fe90 Co38'
_cell_volume   1487.64997990
_cell_formula_units_Z   2
loop_
 _symmetry_equiv_pos_site_id
 _symmetry_equiv_pos_as_xyz
  1  'x, y, z'
loop_
 _atom_site_type_symbol
 _atom_site_label
 _atom_site_symmetry_multiplicity
 _atom_site_fract_x
 _atom_site_fract_y
 _atom_site_fract_z
 _atom_site_occupancy
  Fe  Fe0  1  0.24927701  0.00187366  0.00022073  1
  Fe  Fe1  1  0.87778277  0.12702695  0.37459001  1
  Fe  Fe2  1  0.87567131  0.37697401  0.37260032  1
  Fe  Fe3  1  0.62780482  0.62821746  0.12688332  1
  Fe  Fe4  1  0.37490608  0.37651285  0.37438682  1
  Fe  Fe5  1  0.87228753  0.61926588  0.12375350  1
  Fe  Fe6  1  0.50501220  0.49829432  -0.00151925  1
  Fe  Fe7  1  0.49986105  0.25134444  0.24826758  1
  Fe  Fe8  1  -0.00176259  0.74871759  0.00027592  1
  Fe  Fe9  1  0.62622954  0.87172391  0.37027260  1
  Fe  Fe10  1  0.62618960  0.87461117  0.62506825  1
  Fe  Fe11  1  0.37325789  0.87420088  0.37614233  1
  Fe  Fe12  1  0.62953060  0.37717005  0.12762730  1
  Fe  Fe13  1  0.25183095  0.50298035  0.50179453  1
  Fe  Fe14  1  0.50170994  0.49597101  0.75082509  1
  Fe  Fe15  1  0.62126338  0.12794763  0.87635822  1
  Fe  Fe16  1  0.00255478  0.25200164  0.00157476  1
  Fe  Fe17  1  0.87255043  0.87437735  0.62539153  1
  Fe  Fe18  1  0.25157503  0.74860126  0.24924602  1
  Fe  Fe19  1  0.87516573  0.87540801  0.87580763  1
  Fe  Fe20  1  0.87616899  0.62299521  0.87427774  1
  Fe  Fe21  1  0.12346277  0.12493062  0.87644195  1
  Fe  Fe22  1  0.38007587  0.62618750  0.87482320  1
  Fe  Fe23  1  0.87614159  0.37705926  0.87856730  1
  Fe  Fe24  1  0.24911888  0.25138061  0.24815687  1
  Fe  Fe25  1  0.37421902  0.87421335  0.12312988  1
  Fe  Fe26  1  0.37660112  0.37140348  0.87791856  1
  Fe  Fe27  1  0.62592329  0.37398773  0.62500059  1
  Fe  Fe28  1  0.49970323  -0.00140563  0.50053049  1
  Fe  Fe29  1  0.74965561  0.50295175  0.49683131  1
  Fe  Fe30  1  0.00037814  -0.00040292  0.50195927  1
  Fe  Fe31  1  0.49883616  0.00111810  0.74883850  1
  Fe  Fe32  1  -0.00120515  -0.00072317  0.74881200  1
  Fe  Fe33  1  0.37868472  0.12771352  0.87894615  1
  Fe  Fe34  1  0.25182517  0.00011791  0.74925193  1
  Fe  Fe35  1  0.37222788  0.37810858  0.12227860  1
  Fe  Fe36  1  0.24886175  0.74716568  -0.00359197  1
  Fe  Fe37  1  0.74846013  0.49920248  0.75355236  1
  Fe  Fe38  1  0.74822003  0.25240006  0.00103020  1
  Fe  Fe39  1  0.87093297  0.87456487  0.12456704  1
  Fe  Fe40  1  0.75114667  0.24911304  0.75082584  1
  Fe  Fe41  1  0.49742971  0.25119366  0.50275829  1
  Fe  Fe42  1  0.74957357  0.74918582  0.75260022  1
  Fe  Fe43  1  0.12495273  0.87511876  0.12338693  1
  Fe  Fe44  1  0.12354124  0.12580220  0.37462993  1
  Fe  Fe45  1  0.74602837  -0.00263606  -0.00034710  1
  Fe  Fe46  1  0.75131252  0.74636842  0.49733688  1
  Fe  Fe47  1  0.12740598  0.62194800  0.12455066  1
  Fe  Fe48  1  -0.00149809  0.25195897  0.74912808  1
  Fe  Fe49  1  0.87635280  0.87315074  0.37445979  1
  Fe  Fe50  1  -0.00088185  -0.00089260  0.24831636  1
  Fe  Fe51  1  0.00053717  0.25478481  0.24628981  1
  Fe  Fe52  1  -0.00165854  0.74719022  0.24752856  1
  Fe  Fe53  1  0.12609819  0.37560675  0.62611729  1
  Fe  Fe54  1  0.62426170  0.12623968  0.37366227  1
  Fe  Fe55  1  0.49792381  0.74790166  0.50015592  1
  Fe  Fe56  1  0.62506196  0.62439474  0.62633500  1
  Fe  Fe57  1  0.12437274  0.87238014  0.37546558  1
  Fe  Fe58  1  0.49993724  0.50271207  0.25106138  1
  Fe  Fe59  1  0.25094905  0.50031630  0.75323285  1
  Fe  Fe60  1  0.87652977  0.12444205  0.87705411  1
  Fe  Fe61  1  0.49978454  0.75265217  0.74878395  1
  Fe  Fe62  1  -0.00133698  0.74590028  0.50504452  1
  Fe  Fe63  1  0.87495791  0.12532914  0.12454586  1
  Fe  Fe64  1  0.12428703  0.62443316  0.37369160  1
  Fe  Fe65  1  0.37466493  0.62405392  0.12299794  1
  Fe  Fe66  1  -0.00057136  0.50218119  0.50452623  1
  Fe  Fe67  1  0.87294433  0.37521355  0.62438107  1
  Fe  Fe68  1  0.12391557  0.12653581  0.62382785  1
  Fe  Fe69  1  0.12486208  0.37730620  0.37630707  1
  Fe  Fe70  1  0.62527593  0.12372702  0.12619898  1
  Fe  Fe71  1  0.75064806  0.00096968  0.49819576  1
  Fe  Fe72  1  0.25214774  0.74671495  0.50337997  1
  Fe  Fe73  1  0.62496488  0.12683167  0.62443489  1
  Fe  Fe74  1  0.75159226  0.24892803  0.49817498  1
  Fe  Fe75  1  0.12744054  0.87215314  0.62695441  1
  Fe  Fe76  1  0.74978691  0.00257636  0.75000248  1
  Fe  Fe77  1  0.62490294  0.37456769  0.37429557  1
  Fe  Fe78  1  0.50557134  0.75432919  0.00048323  1
  Fe  Fe79  1  0.49854325  0.50181162  0.49999463  1
  Fe  Fe80  1  0.12010122  0.62463367  0.87080818  1
  Fe  Fe81  1  0.37584967  0.87567615  0.87599087  1
  Fe  Fe82  1  0.37386048  0.12423235  0.37542067  1
  Fe  Fe83  1  0.24882498  -0.00065309  0.24996071  1
  Fe  Fe84  1  0.25123992  0.25008318  0.50060755  1
  Fe  Fe85  1  0.12908070  0.37926523  0.12082332  1
  Fe  Fe86  1  0.37551537  0.12551461  0.12329168  1
  Fe  Fe87  1  0.50006481  -0.00268638  0.24847079  1
  Fe  Fe88  1  0.12322742  0.87444143  0.87571328  1
  Fe  Fe89  1  0.25187399  0.24991970  0.75019226  1
  Co  Co90  1  0.62428262  0.37025470  0.87344448  1
  Co  Co91  1  0.00225391  0.49995228  0.00045515  1
  Co  Co92  1  0.24977163  0.50320105  -0.00716827  1
  Co  Co93  1  -0.00278908  0.75166256  0.74889335  1
  Co  Co94  1  0.74539169  0.50062540  -0.00453244  1
  Co  Co95  1  0.49824909  0.25039870  0.74598833  1
  Co  Co96  1  0.62509268  0.87596572  0.87199475  1
  Co  Co97  1  0.50303305  -0.00365930  0.00212470  1
  Co  Co98  1  0.74917046  0.74950669  -0.00326277  1
  Co  Co99  1  0.62971616  0.87175418  0.13071946  1
  Co  Co100  1  0.75497913  0.74533134  0.25291461  1
  Co  Co101  1  0.24753746  0.24899692  0.00087740  1
  Co  Co102  1  0.50254335  0.25357220  0.00489295  1
  Co  Co103  1  0.88038204  0.62242418  0.37438419  1
  Co  Co104  1  -0.00109497  0.25253319  0.50092699  1
  Co  Co105  1  0.75091544  0.25011069  0.25047016  1
  Co  Co106  1  0.37373284  0.62474773  0.37355065  1
  Co  Co107  1  0.37670674  0.62407975  0.62945398  1
  Co  Co108  1  0.00209341  0.49802664  0.24752475  1
  Co  Co109  1  0.37402182  0.87498423  0.62439005  1
  Co  Co110  1  0.37348667  0.37694001  0.62556298  1
  Co  Co111  1  0.75155076  0.00190468  0.25254905  1
  Co  Co112  1  0.62269653  0.62680607  0.87317690  1
  Co  Co113  1  0.74899605  0.50253371  0.25440061  1
  Co  Co114  1  0.87113721  0.62438372  0.62823288  1
  Co  Co115  1  0.25061583  0.50056014  0.25128588  1
  Co  Co116  1  -0.00030057  -0.00135567  0.00107628  1
  Co  Co117  1  0.12419249  0.37495545  0.87431709  1
  Co  Co118  1  0.62255107  0.62762326  0.37343579  1
  Co  Co119  1  0.49587513  0.74959511  0.24924150  1
  Co  Co120  1  0.24710044  -0.00046707  0.50019775  1
  Co  Co121  1  0.87102988  0.37911668  0.12312551  1
  Co  Co122  1  0.25201927  0.74960604  0.75295973  1
  Co  Co123  1  0.12391158  0.12327607  0.12552079  1
  Co  Co124  1  0.87574683  0.12538040  0.62413951  1
  Co  Co125  1  0.12648381  0.62501158  0.63029522  1
  Co  Co126  1  0.37425947  0.12328002  0.62240282  1
  Co  Co127  1  -0.00172942  0.49727055  0.74709912  1
