# generated using pymatgen
data_Fe45Co19
_symmetry_space_group_name_H-M   'P 1'
_cell_length_a   11.41594656
_cell_length_b   11.41504644
_cell_length_c   11.41447969
_cell_angle_alpha   89.99756397
_cell_angle_beta   90.00086924
_cell_angle_gamma   90.00521586
_symmetry_Int_Tables_number   1
_chemical_formula_structural   Fe45Co19
_chemical_formula_sum   'Fe90 Co38'
_cell_volume   1487.46147733
_cell_formula_units_Z   2
loop_
 _symmetry_equiv_pos_site_id
 _symmetry_equiv_pos_as_xyz
  1  'x, y, z'
loop_
 _atom_site_type_symbol
 _atom_site_label
 _atom_site_symmetry_multiplicity
 _atom_site_fract_x
 _atom_site_fract_y
 _atom_site_fract_z
 _atom_site_occupancy
  Fe  Fe0  1  0.87228669  0.37933323  0.37636935  1
  Fe  Fe1  1  0.49930573  0.75068520  0.74956029  1
  Fe  Fe2  1  0.12468413  0.62672077  0.12486155  1
  Fe  Fe3  1  0.24821629  0.25153050  0.00147478  1
  Fe  Fe4  1  0.37457890  0.37600436  0.37565047  1
  Fe  Fe5  1  0.62791956  0.37638547  0.37348642  1
  Fe  Fe6  1  0.87671446  0.62452624  0.12330336  1
  Fe  Fe7  1  0.74954099  0.00172851  0.75201567  1
  Fe  Fe8  1  -0.00063400  0.50150223  0.25084057  1
  Fe  Fe9  1  0.24759829  0.50223739  0.25264159  1
  Fe  Fe10  1  0.49820872  0.24964219  0.74999841  1
  Fe  Fe11  1  -0.00023321  -0.00388704  -0.00135007  1
  Fe  Fe12  1  0.87606188  0.87235340  0.37642555  1
  Fe  Fe13  1  0.74959657  0.24829647  0.50176288  1
  Fe  Fe14  1  0.12640965  0.62681090  0.62095421  1
  Fe  Fe15  1  0.87158376  0.87260316  0.12348356  1
  Fe  Fe16  1  0.87610572  0.37779494  0.12213884  1
  Fe  Fe17  1  0.37357560  0.62550466  0.62058960  1
  Fe  Fe18  1  0.50403394  0.00404897  0.49623498  1
  Fe  Fe19  1  0.37603600  0.12508694  0.87765340  1
  Fe  Fe20  1  0.87569701  0.62606392  0.62036294  1
  Fe  Fe21  1  0.62636485  0.37588749  0.12292433  1
  Fe  Fe22  1  0.37494657  0.62689951  0.87666189  1
  Fe  Fe23  1  0.25021836  0.75056808  0.74883420  1
  Fe  Fe24  1  0.37589275  0.12398900  0.62389419  1
  Fe  Fe25  1  -0.00100164  0.25111371  0.50043614  1
  Fe  Fe26  1  0.49879172  0.49956935  -0.00080705  1
  Fe  Fe27  1  0.62225195  0.12450000  0.12420117  1
  Fe  Fe28  1  0.25159242  0.50095915  0.74777103  1
  Fe  Fe29  1  -0.00032600  0.75155244  -0.00097565  1
  Fe  Fe30  1  0.12494874  0.87358699  0.12685168  1
  Fe  Fe31  1  0.50061879  0.50007680  0.49979521  1
  Fe  Fe32  1  0.50076251  -0.00135095  0.75192963  1
  Fe  Fe33  1  0.50032740  0.75196479  0.00212476  1
  Fe  Fe34  1  0.37345289  0.37637955  0.12667672  1
  Fe  Fe35  1  0.75143608  0.74498073  0.25321539  1
  Fe  Fe36  1  0.12466910  0.37438939  0.37409243  1
  Fe  Fe37  1  0.75093726  0.50451156  -0.00319907  1
  Fe  Fe38  1  0.24985059  0.24755606  0.24897028  1
  Fe  Fe39  1  0.75198754  0.25084680  0.24622993  1
  Fe  Fe40  1  0.25068279  -0.00006293  0.75133114  1
  Fe  Fe41  1  0.75093396  0.74703110  0.75103719  1
  Fe  Fe42  1  0.25099800  0.75202360  0.25397067  1
  Fe  Fe43  1  -0.00123860  0.25010220  0.75160023  1
  Fe  Fe44  1  0.62557662  0.87513538  0.37372479  1
  Fe  Fe45  1  0.74987742  0.50354418  0.75068620  1
  Fe  Fe46  1  0.37211860  0.37404071  0.87387824  1
  Fe  Fe47  1  0.49892616  0.50044372  0.75046906  1
  Fe  Fe48  1  -0.00100640  -0.00417832  0.75037791  1
  Fe  Fe49  1  0.87356544  0.37589117  0.62495715  1
  Fe  Fe50  1  -0.00080632  0.49939229  0.74982210  1
  Fe  Fe51  1  0.50137663  0.24736998  0.49873652  1
  Fe  Fe52  1  0.24943685  -0.00417193  0.49558130  1
  Fe  Fe53  1  0.62755631  0.87129440  0.87680584  1
  Fe  Fe54  1  0.62415444  0.62601096  0.62415958  1
  Fe  Fe55  1  0.12072112  0.62933475  0.37907808  1
  Fe  Fe56  1  0.00052464  0.25477303  -0.00318707  1
  Fe  Fe57  1  0.74891394  0.00078882  0.00006444  1
  Fe  Fe58  1  0.12418406  0.62649390  0.87549610  1
  Fe  Fe59  1  0.75021162  0.00061264  0.24993038  1
  Fe  Fe60  1  0.24933114  -0.00203114  0.00102636  1
  Fe  Fe61  1  0.50099776  0.74827448  0.25098113  1
  Fe  Fe62  1  0.37557648  0.87556245  0.62260852  1
  Fe  Fe63  1  0.75189371  0.24779491  0.75173388  1
  Fe  Fe64  1  0.50064460  0.50084780  0.25026792  1
  Fe  Fe65  1  0.87750112  0.12521337  0.12277786  1
  Fe  Fe66  1  0.62489057  0.62538690  0.12466887  1
  Fe  Fe67  1  0.62476832  0.37432056  0.62626151  1
  Fe  Fe68  1  0.37373245  0.62504678  0.12603019  1
  Fe  Fe69  1  0.87424608  0.12213503  0.62495530  1
  Fe  Fe70  1  0.12454831  0.12262956  0.62469777  1
  Fe  Fe71  1  0.25024380  0.25098709  0.50191018  1
  Fe  Fe72  1  0.62695122  0.37471361  0.87624408  1
  Fe  Fe73  1  0.62283304  0.12719444  0.87763108  1
  Fe  Fe74  1  0.37674543  0.87736007  0.12852261  1
  Fe  Fe75  1  0.12415157  0.12333945  0.37458252  1
  Fe  Fe76  1  -0.00215671  0.25117985  0.25099163  1
  Fe  Fe77  1  -0.00028457  0.75448822  0.74709631  1
  Fe  Fe78  1  0.24672934  0.49935847  0.00093258  1
  Fe  Fe79  1  0.62761491  0.87579431  0.62311868  1
  Fe  Fe80  1  0.12445859  0.12496391  0.87447567  1
  Fe  Fe81  1  0.12625689  0.37439983  0.62715946  1
  Fe  Fe82  1  -0.00127804  -0.00466499  0.50189886  1
  Fe  Fe83  1  0.50018050  0.74876569  0.49725231  1
  Fe  Fe84  1  0.37343416  0.87310050  0.87624416  1
  Fe  Fe85  1  0.37751755  0.12163887  0.12507237  1
  Fe  Fe86  1  0.12246921  0.12539611  0.12589582  1
  Fe  Fe87  1  0.49935880  0.24838395  0.25044296  1
  Fe  Fe88  1  0.87443905  0.12446463  0.37549659  1
  Fe  Fe89  1  -0.00055515  -0.00170615  0.24950006  1
  Co  Co90  1  0.62764108  0.87355758  0.12735649  1
  Co  Co91  1  0.25057952  0.75123762  0.00221558  1
  Co  Co92  1  0.62499020  0.62129354  0.37443371  1
  Co  Co93  1  0.37512498  0.62366228  0.37596996  1
  Co  Co94  1  0.87241707  0.87392370  0.87519493  1
  Co  Co95  1  0.37957900  0.87681801  0.37370072  1
  Co  Co96  1  0.74821656  0.50167576  0.50250232  1
  Co  Co97  1  0.25122166  0.24737310  0.74759358  1
  Co  Co98  1  0.74923433  0.74811987  0.49738566  1
  Co  Co99  1  0.12623482  0.87340451  0.87471943  1
  Co  Co100  1  0.25061973  0.75343400  0.49650590  1
  Co  Co101  1  0.87732724  0.12350501  0.87636055  1
  Co  Co102  1  0.86792219  0.87582053  0.62592457  1
  Co  Co103  1  0.12717564  0.37589401  0.87041331  1
  Co  Co104  1  0.00176001  0.49685314  0.50182963  1
  Co  Co105  1  0.12014580  0.87299068  0.37265554  1
  Co  Co106  1  0.87263298  0.37780426  0.87523896  1
  Co  Co107  1  0.75163019  0.24761161  0.00122847  1
  Co  Co108  1  0.75044731  0.74571374  -0.00120626  1
  Co  Co109  1  -0.00293665  0.74877433  0.24773248  1
  Co  Co110  1  0.00001735  0.75570181  0.50573283  1
  Co  Co111  1  0.88023877  0.62594986  0.87428034  1
  Co  Co112  1  0.00342841  0.49891220  -0.00038475  1
  Co  Co113  1  0.24763421  -0.00130924  0.25011052  1
  Co  Co114  1  0.62513405  0.12441614  0.62727671  1
  Co  Co115  1  0.12357055  0.37455476  0.12890323  1
  Co  Co116  1  0.75232117  0.50310831  0.24807237  1
  Co  Co117  1  0.24800964  0.49902722  0.49939680  1
  Co  Co118  1  0.87906359  0.62388950  0.38042764  1
  Co  Co119  1  0.49816630  0.25264076  0.00074994  1
  Co  Co120  1  0.37647958  0.37527635  0.62366671  1
  Co  Co121  1  0.62992835  0.12838042  0.37148334  1
  Co  Co122  1  0.12941649  0.87626182  0.62612746  1
  Co  Co123  1  0.37167890  0.12459827  0.37487495  1
  Co  Co124  1  0.50241612  0.00306025  0.25290466  1
  Co  Co125  1  0.62057333  0.62658214  0.87516576  1
  Co  Co126  1  0.50174904  -0.00483580  -0.00132001  1
  Co  Co127  1  0.74925449  0.00115687  0.49769339  1
