# generated using pymatgen
data_Fe45Co19
_symmetry_space_group_name_H-M   'P 1'
_cell_length_a   11.41478394
_cell_length_b   11.41522247
_cell_length_c   11.41508064
_cell_angle_alpha   90.00474187
_cell_angle_beta   90.00003811
_cell_angle_gamma   90.00565252
_symmetry_Int_Tables_number   1
_chemical_formula_structural   Fe45Co19
_chemical_formula_sum   'Fe90 Co38'
_cell_volume   1487.41122727
_cell_formula_units_Z   2
loop_
 _symmetry_equiv_pos_site_id
 _symmetry_equiv_pos_as_xyz
  1  'x, y, z'
loop_
 _atom_site_type_symbol
 _atom_site_label
 _atom_site_symmetry_multiplicity
 _atom_site_fract_x
 _atom_site_fract_y
 _atom_site_fract_z
 _atom_site_occupancy
  Fe  Fe0  1  0.74818861  0.24991869  -0.00010143  1
  Fe  Fe1  1  0.00178002  0.75198597  0.25070033  1
  Fe  Fe2  1  0.37621909  0.37700312  0.37782156  1
  Fe  Fe3  1  0.74475939  0.74754014  0.50439701  1
  Fe  Fe4  1  0.25107725  0.49867222  0.00011375  1
  Fe  Fe5  1  0.74912535  0.74763464  0.00069558  1
  Fe  Fe6  1  -0.00009509  0.25107629  0.25061398  1
  Fe  Fe7  1  0.75023877  0.49901261  0.74834670  1
  Fe  Fe8  1  0.37329079  0.13086437  0.87905905  1
  Fe  Fe9  1  0.12469484  0.12567385  0.37336930  1
  Fe  Fe10  1  0.74535329  0.24727788  0.49550089  1
  Fe  Fe11  1  0.49616547  -0.00146922  0.75163158  1
  Fe  Fe12  1  0.00255158  0.24997118  -0.00203108  1
  Fe  Fe13  1  0.12710902  0.87579188  0.37633530  1
  Fe  Fe14  1  -0.00115971  0.49842938  0.74870976  1
  Fe  Fe15  1  0.12531606  0.37628927  0.62510570  1
  Fe  Fe16  1  0.62331208  0.87433964  0.12396767  1
  Fe  Fe17  1  0.00244470  0.75225607  0.74775595  1
  Fe  Fe18  1  0.12373971  0.37739812  0.12631405  1
  Fe  Fe19  1  0.25396879  -0.00195761  0.75108436  1
  Fe  Fe20  1  0.37663989  0.12802370  0.62398839  1
  Fe  Fe21  1  0.12672040  0.12396062  0.12561547  1
  Fe  Fe22  1  0.50547015  0.50191156  0.50050083  1
  Fe  Fe23  1  0.24943750  0.25042778  0.49925790  1
  Fe  Fe24  1  0.12407402  0.12441209  0.62849461  1
  Fe  Fe25  1  0.50147912  0.25132012  0.25248190  1
  Fe  Fe26  1  0.87566835  0.12566812  0.12523115  1
  Fe  Fe27  1  0.87729467  0.12544473  0.87440753  1
  Fe  Fe28  1  0.62344136  0.87493613  0.87466291  1
  Fe  Fe29  1  0.87637091  0.87382091  0.12291318  1
  Fe  Fe30  1  0.24763073  0.49932157  0.50060473  1
  Fe  Fe31  1  0.13063261  0.87408248  0.87616660  1
  Fe  Fe32  1  0.75171464  0.00060529  0.25257954  1
  Fe  Fe33  1  0.37144321  0.87190645  0.12143413  1
  Fe  Fe34  1  0.37573760  0.12532500  0.37451068  1
  Fe  Fe35  1  0.87650380  0.62525879  0.87519336  1
  Fe  Fe36  1  0.74846815  0.24849136  0.25174991  1
  Fe  Fe37  1  0.87254821  0.37371947  0.62259958  1
  Fe  Fe38  1  0.50120027  0.00064771  0.50081702  1
  Fe  Fe39  1  0.75124674  0.50261585  0.24626517  1
  Fe  Fe40  1  0.62386543  0.62324195  0.87304229  1
  Fe  Fe41  1  0.75188017  0.50270558  0.00300329  1
  Fe  Fe42  1  0.00270594  0.00017944  -0.00149879  1
  Fe  Fe43  1  0.62445608  0.87461184  0.37665618  1
  Fe  Fe44  1  0.62364008  0.12345831  0.12600876  1
  Fe  Fe45  1  -0.00058162  -0.00201755  0.25104484  1
  Fe  Fe46  1  0.49864510  0.49417858  0.74932775  1
  Fe  Fe47  1  -0.00079427  0.50058402  0.49952098  1
  Fe  Fe48  1  0.87619676  0.62621228  0.62562648  1
  Fe  Fe49  1  0.87509814  0.12583548  0.62439702  1
  Fe  Fe50  1  0.12538809  0.37632570  0.87282199  1
  Fe  Fe51  1  0.62388708  0.12438080  0.87444781  1
  Fe  Fe52  1  -0.00127438  0.00077486  0.49984708  1
  Fe  Fe53  1  0.75045807  -0.00074679  -0.00139299  1
  Fe  Fe54  1  0.75237888  -0.00256274  0.74927385  1
  Fe  Fe55  1  0.49740148  0.75305780  0.74678689  1
  Fe  Fe56  1  0.62332015  0.37674141  0.12451682  1
  Fe  Fe57  1  0.37417043  0.87235372  0.37975681  1
  Fe  Fe58  1  0.37198806  0.62590831  0.87081255  1
  Fe  Fe59  1  -0.00198623  -0.00298103  0.75044812  1
  Fe  Fe60  1  0.87263529  0.37540221  0.37494630  1
  Fe  Fe61  1  0.75047899  0.75189071  0.74951583  1
  Fe  Fe62  1  0.87229390  0.62585500  0.37531277  1
  Fe  Fe63  1  0.24808742  0.74827808  0.50398298  1
  Fe  Fe64  1  0.00316831  0.74822585  -0.00018261  1
  Fe  Fe65  1  0.87283649  0.87376475  0.37901001  1
  Fe  Fe66  1  0.49699000  0.00058967  -0.00045456  1
  Fe  Fe67  1  0.87544556  0.37636599  0.87801860  1
  Fe  Fe68  1  0.49876156  0.74782536  -0.00138632  1
  Fe  Fe69  1  0.00152398  0.25028604  0.50017457  1
  Fe  Fe70  1  0.12810046  0.62370707  0.87028816  1
  Fe  Fe71  1  0.25120492  -0.00218681  0.24871160  1
  Fe  Fe72  1  0.00327964  0.74868383  0.50183016  1
  Fe  Fe73  1  0.49728952  0.49848317  -0.00190057  1
  Fe  Fe74  1  -0.00223384  0.49995502  0.25039474  1
  Fe  Fe75  1  0.62376257  0.12568577  0.62568122  1
  Fe  Fe76  1  0.74873963  0.74809078  0.24636620  1
  Fe  Fe77  1  0.37272635  0.62432560  0.12785151  1
  Fe  Fe78  1  0.25063718  0.25278956  0.74888613  1
  Fe  Fe79  1  0.49868490  0.50255124  0.25254016  1
  Fe  Fe80  1  0.12763388  0.62310865  0.37267213  1
  Fe  Fe81  1  0.12642176  0.62428542  0.12881705  1
  Fe  Fe82  1  0.49636703  -0.00241411  0.24847820  1
  Fe  Fe83  1  0.37487098  0.62309195  0.62457224  1
  Fe  Fe84  1  0.24995811  0.00286300  0.50099639  1
  Fe  Fe85  1  0.49809214  0.74783327  0.25355368  1
  Fe  Fe86  1  0.25045425  0.25428070  0.25124878  1
  Fe  Fe87  1  0.75016886  0.25161315  0.75234270  1
  Fe  Fe88  1  0.50063049  0.25449066  0.75104111  1
  Fe  Fe89  1  0.37412905  0.13021428  0.12281934  1
  Co  Co90  1  0.24462990  0.25313591  0.00087447  1
  Co  Co91  1  0.62635840  0.37272975  0.62395026  1
  Co  Co92  1  0.25167431  0.00290055  -0.00054314  1
  Co  Co93  1  0.50474538  0.25111654  -0.00144596  1
  Co  Co94  1  0.50271590  0.74634390  0.50066672  1
  Co  Co95  1  0.62652884  0.37959670  0.37354801  1
  Co  Co96  1  0.87949524  0.62761609  0.12480389  1
  Co  Co97  1  0.37335276  0.37129214  0.87753705  1
  Co  Co98  1  0.62022491  0.12058887  0.37266238  1
  Co  Co99  1  0.74876489  0.00336414  0.49931137  1
  Co  Co100  1  0.12607218  0.12486557  0.87091837  1
  Co  Co101  1  0.87816514  0.12659977  0.37506834  1
  Co  Co102  1  0.00201041  0.50134081  -0.00018934  1
  Co  Co103  1  0.62412800  0.87791992  0.62603752  1
  Co  Co104  1  0.12570454  0.87913000  0.62466174  1
  Co  Co105  1  0.37777052  0.37312567  0.12459534  1
  Co  Co106  1  0.37558280  0.87557630  0.62045058  1
  Co  Co107  1  0.12531018  0.62120912  0.62765125  1
  Co  Co108  1  0.62037908  0.62442253  0.12398371  1
  Co  Co109  1  0.37557766  0.37512853  0.62061146  1
  Co  Co110  1  0.37256357  0.87143800  0.87792223  1
  Co  Co111  1  0.87567352  0.87253475  0.87744768  1
  Co  Co112  1  0.25089653  0.75206912  0.74426654  1
  Co  Co113  1  0.24956952  0.74437685  0.00071002  1
  Co  Co114  1  0.12660703  0.87467512  0.12322378  1
  Co  Co115  1  0.37142339  0.62416583  0.37813810  1
  Co  Co116  1  0.87485353  0.87381904  0.62147496  1
  Co  Co117  1  0.25207440  0.49633243  0.24988906  1
  Co  Co118  1  0.12377772  0.37612811  0.37552764  1
  Co  Co119  1  0.62711738  0.37834069  0.87638520  1
  Co  Co120  1  0.74835041  0.50286973  0.50334310  1
  Co  Co121  1  0.87581516  0.37304011  0.12441632  1
  Co  Co122  1  0.25100186  0.75155381  0.25135553  1
  Co  Co123  1  0.62324225  0.62395106  0.63142686  1
  Co  Co124  1  -0.00114002  0.25299171  0.75001941  1
  Co  Co125  1  0.62841119  0.62477191  0.37332899  1
  Co  Co126  1  0.25269465  0.49669200  0.74920278  1
  Co  Co127  1  0.50209171  0.25046091  0.49732692  1
