# generated using pymatgen
data_Fe45Co19
_symmetry_space_group_name_H-M   'P 1'
_cell_length_a   11.41563467
_cell_length_b   11.41408667
_cell_length_c   11.41349005
_cell_angle_alpha   90.00242335
_cell_angle_beta   90.00283610
_cell_angle_gamma   90.00239808
_symmetry_Int_Tables_number   1
_chemical_formula_structural   Fe45Co19
_chemical_formula_sum   'Fe90 Co38'
_cell_volume   1487.16683214
_cell_formula_units_Z   2
loop_
 _symmetry_equiv_pos_site_id
 _symmetry_equiv_pos_as_xyz
  1  'x, y, z'
loop_
 _atom_site_type_symbol
 _atom_site_label
 _atom_site_symmetry_multiplicity
 _atom_site_fract_x
 _atom_site_fract_y
 _atom_site_fract_z
 _atom_site_occupancy
  Fe  Fe0  1  0.74664913  0.49799362  -0.00352382  1
  Fe  Fe1  1  0.75066822  0.24903413  0.25078133  1
  Fe  Fe2  1  0.49435155  0.25692362  -0.00031314  1
  Fe  Fe3  1  0.62734660  0.12489695  0.62011238  1
  Fe  Fe4  1  0.87204210  0.37264226  0.87158518  1
  Fe  Fe5  1  0.37627912  0.62230396  0.62693571  1
  Fe  Fe6  1  0.12411759  0.87355407  0.87386095  1
  Fe  Fe7  1  0.87225858  0.12602349  0.62173970  1
  Fe  Fe8  1  0.12660820  0.12736517  0.62495656  1
  Fe  Fe9  1  0.37219146  0.87690993  0.62703385  1
  Fe  Fe10  1  0.62513360  0.87387615  0.87667457  1
  Fe  Fe11  1  0.62668372  0.87768598  0.62355122  1
  Fe  Fe12  1  0.25376488  0.24745588  0.75389407  1
  Fe  Fe13  1  0.75088885  0.00144203  -0.00035753  1
  Fe  Fe14  1  0.00108316  0.49592685  0.50117691  1
  Fe  Fe15  1  0.37615467  0.12650275  0.37658770  1
  Fe  Fe16  1  0.62129703  0.62184489  0.12167960  1
  Fe  Fe17  1  0.62306532  0.13025647  0.87756566  1
  Fe  Fe18  1  0.75191865  0.75031853  0.49989299  1
  Fe  Fe19  1  0.37855446  0.61798202  0.12176685  1
  Fe  Fe20  1  0.12392071  0.87646872  0.12542867  1
  Fe  Fe21  1  -0.00177092  0.74913533  0.50058382  1
  Fe  Fe22  1  0.24913210  0.00221044  -0.00156255  1
  Fe  Fe23  1  -0.00121647  0.00184037  0.49945529  1
  Fe  Fe24  1  0.49905146  0.75108427  0.50159925  1
  Fe  Fe25  1  0.12454796  0.62380665  0.12064668  1
  Fe  Fe26  1  0.75065976  0.74810647  0.24904947  1
  Fe  Fe27  1  0.50048878  0.00144714  0.24886576  1
  Fe  Fe28  1  0.87598642  0.87558776  0.37232237  1
  Fe  Fe29  1  0.75038112  0.74848610  0.75082875  1
  Fe  Fe30  1  0.62595886  0.62412759  0.62462852  1
  Fe  Fe31  1  0.87886651  0.12204682  0.12635982  1
  Fe  Fe32  1  0.50082546  0.49835204  0.49925047  1
  Fe  Fe33  1  0.37352418  0.12391520  0.62643161  1
  Fe  Fe34  1  -0.00089029  0.74831570  0.24812169  1
  Fe  Fe35  1  -0.00370168  0.24972710  0.74958309  1
  Fe  Fe36  1  0.37660435  0.87875436  0.87457522  1
  Fe  Fe37  1  0.74835368  0.49986576  0.25016069  1
  Fe  Fe38  1  0.49914960  0.74880221  0.24795521  1
  Fe  Fe39  1  0.37410527  0.12449539  0.12215179  1
  Fe  Fe40  1  0.24930091  0.74734026  0.75144294  1
  Fe  Fe41  1  0.00073936  0.25023953  0.24661819  1
  Fe  Fe42  1  0.74966940  0.49850978  0.49886579  1
  Fe  Fe43  1  0.87541109  0.62142451  0.12449991  1
  Fe  Fe44  1  0.25213440  0.74909557  -0.00083209  1
  Fe  Fe45  1  0.00056995  0.49532682  -0.00414758  1
  Fe  Fe46  1  0.37542211  0.37649906  0.62972103  1
  Fe  Fe47  1  0.25084662  0.74824511  0.24694025  1
  Fe  Fe48  1  0.62386061  0.37314247  0.37427941  1
  Fe  Fe49  1  0.12609867  0.87500056  0.62582817  1
  Fe  Fe50  1  0.87547841  0.62229291  0.62734245  1
  Fe  Fe51  1  -0.00246864  -0.00115792  -0.00084488  1
  Fe  Fe52  1  0.49925280  0.25188483  0.24805440  1
  Fe  Fe53  1  0.12601282  0.37150086  0.12116548  1
  Fe  Fe54  1  0.12331745  0.62471853  0.62709290  1
  Fe  Fe55  1  0.37394409  0.87444502  0.37623291  1
  Fe  Fe56  1  0.50062449  0.75025639  0.75106758  1
  Fe  Fe57  1  0.37364477  0.62489599  0.37546925  1
  Fe  Fe58  1  0.24715098  0.00308821  0.24965006  1
  Fe  Fe59  1  0.75499594  0.25057064  0.00308129  1
  Fe  Fe60  1  0.62565911  0.87493660  0.12370186  1
  Fe  Fe61  1  0.24894615  0.24943465  0.24727956  1
  Fe  Fe62  1  0.74968242  0.00353283  0.25273979  1
  Fe  Fe63  1  -0.00291261  0.75215247  -0.00025723  1
  Fe  Fe64  1  0.00019299  0.00215681  0.75123710  1
  Fe  Fe65  1  0.25000538  0.00153784  0.49978022  1
  Fe  Fe66  1  0.87727574  0.62474708  0.87205909  1
  Fe  Fe67  1  0.00237851  0.49900526  0.24981429  1
  Fe  Fe68  1  0.12312120  0.12989596  0.37812750  1
  Fe  Fe69  1  0.87715612  0.37372367  0.37420057  1
  Fe  Fe70  1  0.50220177  0.00329527  0.75047731  1
  Fe  Fe71  1  0.12477085  0.62526238  0.37685744  1
  Fe  Fe72  1  0.37527744  0.87766844  0.12346927  1
  Fe  Fe73  1  0.74956916  0.00368932  0.75282041  1
  Fe  Fe74  1  0.12308464  0.13022459  0.87900624  1
  Fe  Fe75  1  0.86922496  0.37482659  0.62694472  1
  Fe  Fe76  1  0.62314436  0.12840717  0.12384327  1
  Fe  Fe77  1  0.50040596  0.25110239  0.50306573  1
  Fe  Fe78  1  0.75240853  0.75037201  0.00029034  1
  Fe  Fe79  1  0.62503095  0.62565957  0.37598714  1
  Fe  Fe80  1  0.87445311  0.87669081  0.62793960  1
  Fe  Fe81  1  0.12637394  0.87329225  0.37581364  1
  Fe  Fe82  1  0.62340461  0.87783197  0.37677633  1
  Fe  Fe83  1  0.24715475  0.49940303  0.25050487  1
  Fe  Fe84  1  0.37812762  0.62125904  0.87597973  1
  Fe  Fe85  1  0.24871417  0.49798265  0.50125364  1
  Fe  Fe86  1  0.24854227  0.49503831  -0.00578971  1
  Fe  Fe87  1  0.50848047  0.49735424  0.75423908  1
  Fe  Fe88  1  0.37318042  0.37486291  0.37391888  1
  Fe  Fe89  1  0.12790884  0.37326720  0.62912353  1
  Co  Co90  1  -0.00057525  0.25354538  0.50441813  1
  Co  Co91  1  0.87432698  0.87798525  0.12735714  1
  Co  Co92  1  0.00062151  0.75059232  0.74958767  1
  Co  Co93  1  0.87431243  0.37812435  0.12656332  1
  Co  Co94  1  0.37381939  0.37992447  0.12803970  1
  Co  Co95  1  0.62921784  0.36608381  0.87369110  1
  Co  Co96  1  0.62820979  0.37475841  0.62651607  1
  Co  Co97  1  0.12351294  0.12721041  0.11921205  1
  Co  Co98  1  0.74629432  0.50181689  0.75378016  1
  Co  Co99  1  0.25043046  0.74821152  0.50333121  1
  Co  Co100  1  0.12216252  0.62636313  0.87600263  1
  Co  Co101  1  -0.00548677  0.25305850  0.00042239  1
  Co  Co102  1  0.12533937  0.37183932  0.37474937  1
  Co  Co103  1  0.87560798  0.12549018  0.87549598  1
  Co  Co104  1  0.50175744  0.49959472  0.25200234  1
  Co  Co105  1  0.49664518  0.00053999  0.50225326  1
  Co  Co106  1  0.87615665  0.62266288  0.37475376  1
  Co  Co107  1  0.49752743  0.75151469  0.00129371  1
  Co  Co108  1  0.24713136  0.00251696  0.75283535  1
  Co  Co109  1  0.87375417  0.87578272  0.87216640  1
  Co  Co110  1  0.37787194  0.12312219  0.87628087  1
  Co  Co111  1  0.24629373  0.50257980  0.75228763  1
  Co  Co112  1  0.74839499  0.25059678  0.49652263  1
  Co  Co113  1  0.12443803  0.36849534  0.87294079  1
  Co  Co114  1  0.62573012  0.37458803  0.12539257  1
  Co  Co115  1  0.62132527  0.12476542  0.37672142  1
  Co  Co116  1  0.50266311  0.00033100  0.00074729  1
  Co  Co117  1  0.00328441  0.00191734  0.25206539  1
  Co  Co118  1  0.87920550  0.12955204  0.37565273  1
  Co  Co119  1  0.74978596  0.24556602  0.74804512  1
  Co  Co120  1  0.25611007  0.25290952  -0.00179160  1
  Co  Co121  1  0.25242566  0.25193731  0.50199878  1
  Co  Co122  1  0.75358935  0.00081849  0.49592165  1
  Co  Co123  1  0.00038161  0.49612759  0.75075069  1
  Co  Co124  1  0.37526191  0.37717351  0.86762498  1
  Co  Co125  1  0.62357598  0.62916577  0.87775407  1
  Co  Co126  1  0.50063499  0.24761075  0.74672807  1
  Co  Co127  1  0.50425776  0.49168056  -0.00488283  1
