# generated using pymatgen
data_Fe45Co19
_symmetry_space_group_name_H-M   'P 1'
_cell_length_a   11.41466840
_cell_length_b   11.41543368
_cell_length_c   11.41454949
_cell_angle_alpha   89.99664342
_cell_angle_beta   90.00680557
_cell_angle_gamma   90.00165734
_symmetry_Int_Tables_number   1
_chemical_formula_structural   Fe45Co19
_chemical_formula_sum   'Fe90 Co38'
_cell_volume   1487.35448019
_cell_formula_units_Z   2
loop_
 _symmetry_equiv_pos_site_id
 _symmetry_equiv_pos_as_xyz
  1  'x, y, z'
loop_
 _atom_site_type_symbol
 _atom_site_label
 _atom_site_symmetry_multiplicity
 _atom_site_fract_x
 _atom_site_fract_y
 _atom_site_fract_z
 _atom_site_occupancy
  Fe  Fe0  1  0.37746612  0.37243125  0.37605729  1
  Fe  Fe1  1  0.87527731  0.37417170  0.62537534  1
  Fe  Fe2  1  0.62939303  0.12253472  0.87482279  1
  Fe  Fe3  1  0.12294037  0.12422145  0.87677338  1
  Fe  Fe4  1  0.00217362  0.00132146  0.25350398  1
  Fe  Fe5  1  0.37692379  0.87503820  0.86826435  1
  Fe  Fe6  1  0.62963580  0.12392162  0.62336889  1
  Fe  Fe7  1  0.24938880  0.24963760  -0.00038088  1
  Fe  Fe8  1  0.37463817  0.87536648  0.12595102  1
  Fe  Fe9  1  0.37454840  0.12445924  0.37807862  1
  Fe  Fe10  1  0.50108227  0.24871746  -0.00174339  1
  Fe  Fe11  1  0.12237366  0.37494753  0.87329216  1
  Fe  Fe12  1  0.87335742  0.12079664  0.12303899  1
  Fe  Fe13  1  0.00027676  0.75362478  0.49679975  1
  Fe  Fe14  1  0.12601300  0.87552465  0.12677466  1
  Fe  Fe15  1  0.24995097  0.50105903  0.74902399  1
  Fe  Fe16  1  0.00164611  0.74863655  0.25192601  1
  Fe  Fe17  1  0.24995741  -0.00125901  -0.00138149  1
  Fe  Fe18  1  0.87430077  0.37580996  0.12824188  1
  Fe  Fe19  1  0.12222230  0.37368322  0.62707576  1
  Fe  Fe20  1  0.37530220  0.37461151  0.12493041  1
  Fe  Fe21  1  0.87544803  0.62416618  0.37432439  1
  Fe  Fe22  1  0.37491017  0.12324454  0.62336147  1
  Fe  Fe23  1  0.50351093  0.50107592  0.00149685  1
  Fe  Fe24  1  0.74998129  0.25416541  0.49791970  1
  Fe  Fe25  1  0.24861075  0.00180233  0.75032845  1
  Fe  Fe26  1  0.37662197  0.62665839  0.87235584  1
  Fe  Fe27  1  0.49794708  0.74978532  0.25079144  1
  Fe  Fe28  1  0.24846882  0.49786418  0.49989871  1
  Fe  Fe29  1  0.50259871  0.75103936  -0.00218857  1
  Fe  Fe30  1  0.12519588  0.62634369  0.12496077  1
  Fe  Fe31  1  0.50059062  0.24529851  0.74952836  1
  Fe  Fe32  1  0.62579111  0.87579274  0.86813525  1
  Fe  Fe33  1  0.11736138  0.12434680  0.62236299  1
  Fe  Fe34  1  0.62831472  0.12429874  0.12520696  1
  Fe  Fe35  1  0.37790173  0.37405648  0.62564548  1
  Fe  Fe36  1  0.12377745  0.62632614  0.62474613  1
  Fe  Fe37  1  0.50235206  0.50022292  0.24953584  1
  Fe  Fe38  1  0.74885671  0.75218566  0.00171370  1
  Fe  Fe39  1  0.75452131  0.24868516  0.75049716  1
  Fe  Fe40  1  0.24922404  0.75268880  0.50424965  1
  Fe  Fe41  1  0.37284564  0.87570218  0.37611289  1
  Fe  Fe42  1  0.74999198  0.75844416  0.49872381  1
  Fe  Fe43  1  -0.00283044  0.50321731  0.74963457  1
  Fe  Fe44  1  0.50353222  0.49829533  0.50214585  1
  Fe  Fe45  1  -0.00256150  0.24664750  0.25208638  1
  Fe  Fe46  1  0.37515688  0.12464248  0.12284165  1
  Fe  Fe47  1  0.24883862  0.25059148  0.50139979  1
  Fe  Fe48  1  0.87456664  0.87589531  0.12766359  1
  Fe  Fe49  1  0.62753554  0.12387237  0.37670595  1
  Fe  Fe50  1  0.50354113  -0.00178587  0.50222145  1
  Fe  Fe51  1  0.50152912  0.00006586  -0.00259123  1
  Fe  Fe52  1  0.87448414  0.62775054  0.62087105  1
  Fe  Fe53  1  0.12401678  0.37430150  0.12660220  1
  Fe  Fe54  1  0.75129272  0.25135327  -0.00005148  1
  Fe  Fe55  1  0.75145552  0.74794687  0.74788767  1
  Fe  Fe56  1  -0.00554791  0.24658888  0.75158055  1
  Fe  Fe57  1  0.87228507  0.62487940  0.87812832  1
  Fe  Fe58  1  0.62418836  0.87605573  0.12836367  1
  Fe  Fe59  1  0.00020506  0.49832006  0.49858546  1
  Fe  Fe60  1  0.74997852  0.50136811  0.74774514  1
  Fe  Fe61  1  0.11872171  0.87452577  0.63243957  1
  Fe  Fe62  1  0.24948570  0.50296714  0.25181274  1
  Fe  Fe63  1  0.50194223  0.24899088  0.25029776  1
  Fe  Fe64  1  0.75895373  0.00225789  0.74695417  1
  Fe  Fe65  1  0.74953110  0.75160541  0.25141138  1
  Fe  Fe66  1  0.50066919  0.75435087  0.50708149  1
  Fe  Fe67  1  0.24510960  -0.00185821  0.50096261  1
  Fe  Fe68  1  0.62447441  0.62793512  0.37771336  1
  Fe  Fe69  1  0.24990477  0.49940492  -0.00140373  1
  Fe  Fe70  1  0.87468756  0.12054892  0.38184172  1
  Fe  Fe71  1  0.37556637  0.62566286  0.12381721  1
  Fe  Fe72  1  0.50032764  0.00115456  0.25086236  1
  Fe  Fe73  1  0.12557865  0.62674875  0.87380822  1
  Fe  Fe74  1  0.12326951  0.37354600  0.37297381  1
  Fe  Fe75  1  0.37484716  0.62670720  0.37948637  1
  Fe  Fe76  1  0.24826595  0.24617480  0.24963547  1
  Fe  Fe77  1  0.37683061  0.37458617  0.87309127  1
  Fe  Fe78  1  0.74852798  0.50165345  0.00416231  1
  Fe  Fe79  1  0.24810302  0.00291282  0.25020053  1
  Fe  Fe80  1  0.24999290  0.75236083  -0.00197263  1
  Fe  Fe81  1  -0.00121589  0.50092190  0.00151294  1
  Fe  Fe82  1  -0.00139047  -0.00444431  -0.00447454  1
  Fe  Fe83  1  0.24962947  0.24824105  0.74925068  1
  Fe  Fe84  1  0.74725652  0.50085034  0.24904129  1
  Fe  Fe85  1  -0.00071854  0.75186927  -0.00235642  1
  Fe  Fe86  1  -0.00215232  0.25118247  -0.00071941  1
  Fe  Fe87  1  0.50395789  0.50462473  0.74642241  1
  Fe  Fe88  1  0.62673616  0.37639590  0.87372036  1
  Fe  Fe89  1  0.74867367  0.49643620  0.49917720  1
  Co  Co90  1  0.37517246  0.87979705  0.62830993  1
  Co  Co91  1  0.74915667  -0.00004280  0.25235353  1
  Co  Co92  1  0.25181570  0.74862598  0.74731960  1
  Co  Co93  1  0.25099701  0.74709537  0.24933341  1
  Co  Co94  1  0.62625327  0.37189518  0.12564895  1
  Co  Co95  1  0.74834928  -0.00520442  0.00087414  1
  Co  Co96  1  0.12841945  0.87372459  0.37187679  1
  Co  Co97  1  0.50079315  0.74598194  0.74450306  1
  Co  Co98  1  0.87637911  0.12502487  0.61520272  1
  Co  Co99  1  0.87500243  0.62741178  0.12650656  1
  Co  Co100  1  0.12498425  0.87502608  0.86967135  1
  Co  Co101  1  0.87164619  0.87298375  0.87292154  1
  Co  Co102  1  0.74904510  -0.00783498  0.50027290  1
  Co  Co103  1  0.62376410  0.37359229  0.37324445  1
  Co  Co104  1  0.12229949  0.12343038  0.12124196  1
  Co  Co105  1  -0.00683469  0.00436947  0.75248751  1
  Co  Co106  1  0.87513443  0.37838174  0.37178700  1
  Co  Co107  1  0.00150827  -0.00729871  0.49837558  1
  Co  Co108  1  0.37294646  0.62255871  0.62280248  1
  Co  Co109  1  0.87931263  0.87357000  0.62720929  1
  Co  Co110  1  0.50043889  0.00491117  0.74895687  1
  Co  Co111  1  0.12325963  0.12589657  0.37962201  1
  Co  Co112  1  0.62397674  0.62874450  0.12663944  1
  Co  Co113  1  0.75321495  0.24678395  0.25262804  1
  Co  Co114  1  0.62667722  0.87771545  0.63189043  1
  Co  Co115  1  0.62994072  0.62722872  0.62025205  1
  Co  Co116  1  0.50208175  0.24759769  0.50160454  1
  Co  Co117  1  0.87664652  0.87697544  0.37135255  1
  Co  Co118  1  0.12538446  0.62639384  0.37769291  1
  Co  Co119  1  0.87308428  0.12361537  0.88150313  1
  Co  Co120  1  0.62528238  0.37195616  0.62744868  1
  Co  Co121  1  0.62711456  0.62560288  0.87472568  1
  Co  Co122  1  0.62147681  0.87436132  0.37249554  1
  Co  Co123  1  -0.00351548  0.74626186  0.75375438  1
  Co  Co124  1  -0.00128586  0.25529332  0.49780060  1
  Co  Co125  1  0.37270015  0.12447223  0.87616197  1
  Co  Co126  1  0.00235548  0.50246854  0.25022340  1
  Co  Co127  1  0.87409858  0.37886323  0.87523325  1
