# generated using pymatgen
data_Fe45Co19
_symmetry_space_group_name_H-M   'P 1'
_cell_length_a   11.41575318
_cell_length_b   11.41520379
_cell_length_c   11.41556222
_cell_angle_alpha   89.99320634
_cell_angle_beta   90.01288781
_cell_angle_gamma   90.00094676
_symmetry_Int_Tables_number   1
_chemical_formula_structural   Fe45Co19
_chemical_formula_sum   'Fe90 Co38'
_cell_volume   1487.59781222
_cell_formula_units_Z   2
loop_
 _symmetry_equiv_pos_site_id
 _symmetry_equiv_pos_as_xyz
  1  'x, y, z'
loop_
 _atom_site_type_symbol
 _atom_site_label
 _atom_site_symmetry_multiplicity
 _atom_site_fract_x
 _atom_site_fract_y
 _atom_site_fract_z
 _atom_site_occupancy
  Fe  Fe0  1  0.87781341  0.12322445  0.37453086  1
  Fe  Fe1  1  0.49723628  0.25310460  0.74873921  1
  Fe  Fe2  1  0.75250548  0.74862957  0.25137529  1
  Fe  Fe3  1  0.49664279  0.74511554  0.50226603  1
  Fe  Fe4  1  -0.00061424  0.24764156  0.00150681  1
  Fe  Fe5  1  0.87526937  0.37801486  0.12415399  1
  Fe  Fe6  1  0.62841307  0.62049389  0.37649415  1
  Fe  Fe7  1  0.50073921  0.49986194  -0.00237181  1
  Fe  Fe8  1  -0.00293636  0.75090166  0.49656861  1
  Fe  Fe9  1  0.50256976  0.49690069  0.25113453  1
  Fe  Fe10  1  0.75190166  0.74756226  0.50052745  1
  Fe  Fe11  1  0.75190130  0.00296671  0.74818721  1
  Fe  Fe12  1  0.24916174  0.75099144  -0.00161467  1
  Fe  Fe13  1  -0.00079594  -0.00008318  -0.00113097  1
  Fe  Fe14  1  0.87791585  0.37483955  0.62331962  1
  Fe  Fe15  1  0.62410805  0.37612603  0.62086775  1
  Fe  Fe16  1  0.87520784  0.87576349  0.12567891  1
  Fe  Fe17  1  0.24686275  -0.00383946  0.25214660  1
  Fe  Fe18  1  0.24991608  0.25095035  0.25081216  1
  Fe  Fe19  1  0.50018555  0.74970311  -0.00112288  1
  Fe  Fe20  1  0.25195137  0.24912489  0.49902848  1
  Fe  Fe21  1  0.00177654  0.25066676  0.75022583  1
  Fe  Fe22  1  0.12530642  0.12743288  0.62450697  1
  Fe  Fe23  1  0.12600959  0.12553383  0.87474862  1
  Fe  Fe24  1  0.37348457  0.12700336  0.87162766  1
  Fe  Fe25  1  0.12606574  0.87370549  0.62291212  1
  Fe  Fe26  1  -0.00136084  0.00106010  0.74856265  1
  Fe  Fe27  1  0.62442484  0.87364561  0.62347491  1
  Fe  Fe28  1  0.00184685  0.49780355  0.75038724  1
  Fe  Fe29  1  0.87538321  0.87610716  0.62368423  1
  Fe  Fe30  1  0.49916745  0.25399815  0.25272909  1
  Fe  Fe31  1  0.49774487  0.24927010  0.00072575  1
  Fe  Fe32  1  0.12670132  0.37623569  0.37594603  1
  Fe  Fe33  1  0.75042001  0.49849984  0.74986338  1
  Fe  Fe34  1  0.75274575  0.24889508  0.00188994  1
  Fe  Fe35  1  0.75157579  0.74927945  0.75054906  1
  Fe  Fe36  1  0.37299550  0.37943017  0.62408447  1
  Fe  Fe37  1  0.62804748  0.87453150  0.87604886  1
  Fe  Fe38  1  0.00045191  0.25088772  0.25020173  1
  Fe  Fe39  1  0.24982927  -0.00041522  0.74843866  1
  Fe  Fe40  1  0.75086837  0.25302835  0.25061163  1
  Fe  Fe41  1  0.49993681  -0.00180461  0.74827555  1
  Fe  Fe42  1  0.74832466  0.00058093  0.25073617  1
  Fe  Fe43  1  0.12616564  0.62885049  0.37156586  1
  Fe  Fe44  1  0.87865909  0.37729009  0.87749330  1
  Fe  Fe45  1  0.49832723  0.00158096  0.50162420  1
  Fe  Fe46  1  0.25405911  0.74481576  0.50358919  1
  Fe  Fe47  1  0.37174945  0.61944523  0.37194928  1
  Fe  Fe48  1  0.37479017  0.62486899  0.86953253  1
  Fe  Fe49  1  0.62257072  0.62231261  0.62591998  1
  Fe  Fe50  1  0.12340567  0.62442940  0.87469258  1
  Fe  Fe51  1  0.62528941  0.87287546  0.37687855  1
  Fe  Fe52  1  0.37374640  0.12336091  0.12781539  1
  Fe  Fe53  1  0.00113210  0.50066293  0.49838866  1
  Fe  Fe54  1  0.75050630  0.00283237  0.50106608  1
  Fe  Fe55  1  0.62310783  0.12813220  0.62491574  1
  Fe  Fe56  1  0.37296855  0.87280853  0.87200264  1
  Fe  Fe57  1  0.62634181  0.62627669  0.87433069  1
  Fe  Fe58  1  0.00029203  0.75186105  0.75246735  1
  Fe  Fe59  1  0.75220473  0.25080122  0.74944215  1
  Fe  Fe60  1  0.12465728  0.37561902  0.12288065  1
  Fe  Fe61  1  0.75231625  0.00272961  0.00053211  1
  Fe  Fe62  1  0.37418491  0.87492332  0.12408643  1
  Fe  Fe63  1  0.12544450  0.12207956  0.12557973  1
  Fe  Fe64  1  0.62519486  0.12620549  0.87399210  1
  Fe  Fe65  1  0.24787431  0.50032369  0.00031816  1
  Fe  Fe66  1  0.24512688  0.49602376  0.75031276  1
  Fe  Fe67  1  0.62416778  0.12714810  0.12566677  1
  Fe  Fe68  1  0.37476057  0.87457701  0.37731905  1
  Fe  Fe69  1  0.00007345  0.24914020  0.49858069  1
  Fe  Fe70  1  0.87345015  0.62295192  0.12349159  1
  Fe  Fe71  1  0.37487893  0.37682087  0.12479732  1
  Fe  Fe72  1  0.49543012  0.25192850  0.49689821  1
  Fe  Fe73  1  0.75270354  0.25065562  0.49878673  1
  Fe  Fe74  1  0.25014708  0.24953856  -0.00049151  1
  Fe  Fe75  1  0.49939168  0.74862557  0.25120245  1
  Fe  Fe76  1  0.00059276  0.50166649  0.25013937  1
  Fe  Fe77  1  0.62297838  0.12681822  0.37513757  1
  Fe  Fe78  1  0.24912046  0.00210659  0.49910225  1
  Fe  Fe79  1  0.62553805  0.87274040  0.12406004  1
  Fe  Fe80  1  0.62460519  0.37293440  0.87742517  1
  Fe  Fe81  1  0.62722732  0.62343421  0.12412388  1
  Fe  Fe82  1  0.50099403  -0.00136163  0.25030364  1
  Fe  Fe83  1  0.12458084  0.63114825  0.12779991  1
  Fe  Fe84  1  0.49867869  0.00067561  -0.00072068  1
  Fe  Fe85  1  0.87693744  0.62439655  0.62602132  1
  Fe  Fe86  1  0.00423091  -0.00542990  0.25483525  1
  Fe  Fe87  1  0.37479426  0.62403293  0.12580177  1
  Fe  Fe88  1  0.12371864  0.62544990  0.62553130  1
  Fe  Fe89  1  -0.00222254  0.75125740  -0.00264408  1
  Co  Co90  1  0.62657296  0.37748583  0.37891767  1
  Co  Co91  1  0.37338886  0.37568668  0.87631579  1
  Co  Co92  1  0.24550886  0.49951477  0.24626572  1
  Co  Co93  1  0.37638267  0.62075547  0.63336252  1
  Co  Co94  1  0.36994962  0.37985614  0.37453488  1
  Co  Co95  1  0.12429336  0.12769443  0.37471712  1
  Co  Co96  1  0.12475021  0.87727058  0.87487518  1
  Co  Co97  1  0.87713223  0.37670552  0.37562021  1
  Co  Co98  1  0.87679887  0.12661974  0.62342113  1
  Co  Co99  1  0.74810934  0.49874469  -0.00243228  1
  Co  Co100  1  0.87380159  0.87588706  0.87327112  1
  Co  Co101  1  0.87171760  0.87752067  0.37702371  1
  Co  Co102  1  0.87576199  0.62227834  0.87454529  1
  Co  Co103  1  0.24725128  0.50388075  0.50222783  1
  Co  Co104  1  0.75039398  0.49733855  0.24989865  1
  Co  Co105  1  0.37359637  0.87390391  0.62479282  1
  Co  Co106  1  0.75245294  0.74966367  -0.00006221  1
  Co  Co107  1  0.12461088  0.37322879  0.62102760  1
  Co  Co108  1  0.12441592  0.87238398  0.12297339  1
  Co  Co109  1  0.62460628  0.37456693  0.12363819  1
  Co  Co110  1  0.87379954  0.62188340  0.37581521  1
  Co  Co111  1  0.12859673  0.86769010  0.37827472  1
  Co  Co112  1  0.50295835  0.49637976  0.75211316  1
  Co  Co113  1  0.25382895  0.75263667  0.24866281  1
  Co  Co114  1  0.00314707  0.50304986  0.00252784  1
  Co  Co115  1  0.87567914  0.12660672  0.87396636  1
  Co  Co116  1  0.12266973  0.37391653  0.87919377  1
  Co  Co117  1  0.75340294  0.49953248  0.50365059  1
  Co  Co118  1  -0.00516653  0.75176190  0.25240043  1
  Co  Co119  1  0.24610603  0.74964308  0.74885922  1
  Co  Co120  1  0.49747015  0.50163948  0.49921305  1
  Co  Co121  1  0.00275253  -0.00063271  0.49877041  1
  Co  Co122  1  0.24848524  0.25455910  0.74947085  1
  Co  Co123  1  0.87739196  0.12300056  0.12961119  1
  Co  Co124  1  0.50208415  0.75255774  0.74884689  1
  Co  Co125  1  0.37463453  0.12591521  0.62657967  1
  Co  Co126  1  0.25129925  -0.00007713  -0.00091241  1
  Co  Co127  1  0.37477035  0.12321587  0.37214989  1
