# generated using pymatgen
data_Fe45Co19
_symmetry_space_group_name_H-M   'P 1'
_cell_length_a   11.41608896
_cell_length_b   11.41478547
_cell_length_c   11.41445819
_cell_angle_alpha   89.99467702
_cell_angle_beta   89.99560831
_cell_angle_gamma   89.99106844
_symmetry_Int_Tables_number   1
_chemical_formula_structural   Fe45Co19
_chemical_formula_sum   'Fe90 Co38'
_cell_volume   1487.44320193
_cell_formula_units_Z   2
loop_
 _symmetry_equiv_pos_site_id
 _symmetry_equiv_pos_as_xyz
  1  'x, y, z'
loop_
 _atom_site_type_symbol
 _atom_site_label
 _atom_site_symmetry_multiplicity
 _atom_site_fract_x
 _atom_site_fract_y
 _atom_site_fract_z
 _atom_site_occupancy
  Fe  Fe0  1  0.00157221  0.50336854  0.24585879  1
  Fe  Fe1  1  0.12420090  0.37642685  0.37536575  1
  Fe  Fe2  1  0.49954267  0.50309169  0.49961703  1
  Fe  Fe3  1  -0.00238527  0.49829540  0.75058361  1
  Fe  Fe4  1  0.50184223  0.50074898  0.75206634  1
  Fe  Fe5  1  0.74457272  0.50315881  -0.00012015  1
  Fe  Fe6  1  0.12268616  0.62518844  0.87781430  1
  Fe  Fe7  1  0.87257972  0.37859732  0.12359482  1
  Fe  Fe8  1  0.75049514  -0.00043981  0.49962896  1
  Fe  Fe9  1  0.75054055  0.49761178  0.74770608  1
  Fe  Fe10  1  0.50324821  0.00163031  0.24733610  1
  Fe  Fe11  1  0.25792986  0.74904599  0.49874309  1
  Fe  Fe12  1  0.25077694  -0.00246718  -0.00043239  1
  Fe  Fe13  1  0.37610309  0.37711323  0.62700634  1
  Fe  Fe14  1  0.37453411  0.37720176  0.37405715  1
  Fe  Fe15  1  0.12389881  0.87314329  0.37366383  1
  Fe  Fe16  1  0.74878654  0.75007125  0.00041908  1
  Fe  Fe17  1  0.62468421  0.37613435  0.87569301  1
  Fe  Fe18  1  0.12487552  0.12465780  0.37455103  1
  Fe  Fe19  1  0.24951083  0.50151522  0.74955080  1
  Fe  Fe20  1  0.87484001  0.62291304  0.62233586  1
  Fe  Fe21  1  0.49791643  0.25633985  0.00270551  1
  Fe  Fe22  1  -0.00169797  0.24979924  0.00139299  1
  Fe  Fe23  1  0.12352252  0.12433869  0.87656262  1
  Fe  Fe24  1  0.49942418  0.74884179  0.25163516  1
  Fe  Fe25  1  0.24861702  0.75140610  -0.00276135  1
  Fe  Fe26  1  0.62602465  0.87202268  0.62363875  1
  Fe  Fe27  1  0.50082726  0.24982801  0.75015005  1
  Fe  Fe28  1  0.25039455  0.25094485  0.50069822  1
  Fe  Fe29  1  0.25039852  -0.00174345  0.49792992  1
  Fe  Fe30  1  0.50036440  -0.00130273  0.75166818  1
  Fe  Fe31  1  0.75052410  0.24978851  0.00068257  1
  Fe  Fe32  1  0.74607238  0.00081896  0.24643398  1
  Fe  Fe33  1  0.74895056  -0.00110540  0.75199425  1
  Fe  Fe34  1  0.37602815  0.12360552  0.37389335  1
  Fe  Fe35  1  0.25179210  0.49797819  -0.00000332  1
  Fe  Fe36  1  -0.00140448  0.24945642  0.24757600  1
  Fe  Fe37  1  0.87401386  0.87383592  0.62460925  1
  Fe  Fe38  1  0.12269182  0.37419124  0.62583165  1
  Fe  Fe39  1  0.00132171  0.00273176  0.24644612  1
  Fe  Fe40  1  0.87453753  0.12669352  0.62677869  1
  Fe  Fe41  1  -0.00345311  0.74604204  0.24833688  1
  Fe  Fe42  1  0.62384169  0.87458824  0.87689909  1
  Fe  Fe43  1  0.75037474  0.25348770  0.74914649  1
  Fe  Fe44  1  0.62431192  0.12449300  0.87942498  1
  Fe  Fe45  1  0.25004734  -0.00253293  0.75338350  1
  Fe  Fe46  1  0.37460821  0.12243155  0.62491071  1
  Fe  Fe47  1  0.25165786  0.75023337  0.24979222  1
  Fe  Fe48  1  0.25009462  0.24965680  0.25140849  1
  Fe  Fe49  1  0.12658667  0.37393429  0.12486299  1
  Fe  Fe50  1  0.87872720  0.87590465  0.87775353  1
  Fe  Fe51  1  0.00025620  -0.00048613  0.50115606  1
  Fe  Fe52  1  0.12821974  0.87229211  0.62624393  1
  Fe  Fe53  1  0.37598771  0.62426009  0.87488393  1
  Fe  Fe54  1  -0.00256901  0.75024962  0.49778007  1
  Fe  Fe55  1  0.87612476  0.37982915  0.37781363  1
  Fe  Fe56  1  0.50282101  0.25043167  0.24885557  1
  Fe  Fe57  1  0.74830597  0.24999431  0.25011841  1
  Fe  Fe58  1  0.62534285  0.12501809  0.62442715  1
  Fe  Fe59  1  0.62553871  0.37685453  0.37599457  1
  Fe  Fe60  1  0.50028523  -0.00293583  0.49956024  1
  Fe  Fe61  1  0.12627810  0.62588123  0.37545738  1
  Fe  Fe62  1  0.62565663  0.87231227  0.37358610  1
  Fe  Fe63  1  0.24832442  0.50106233  0.25001099  1
  Fe  Fe64  1  -0.00024528  0.74880196  0.75103149  1
  Fe  Fe65  1  0.49799308  0.75090786  0.74880563  1
  Fe  Fe66  1  0.25221156  0.25259329  -0.00027569  1
  Fe  Fe67  1  0.37632939  0.12589442  0.87681366  1
  Fe  Fe68  1  0.00112508  -0.00017467  0.74845297  1
  Fe  Fe69  1  0.87507983  0.12417640  0.87557395  1
  Fe  Fe70  1  0.74915021  0.25256232  0.50109523  1
  Fe  Fe71  1  0.37734655  0.87430159  0.12429721  1
  Fe  Fe72  1  0.00054619  0.24858851  0.50076985  1
  Fe  Fe73  1  0.24969489  0.24903829  0.74918333  1
  Fe  Fe74  1  0.24893940  -0.00042216  0.24846798  1
  Fe  Fe75  1  0.87387347  0.12358086  0.37361852  1
  Fe  Fe76  1  0.37477876  0.62351025  0.12435065  1
  Fe  Fe77  1  0.37508516  0.12620022  0.12494081  1
  Fe  Fe78  1  0.12302001  0.87347931  0.12311996  1
  Fe  Fe79  1  0.12672122  0.62656198  0.62407442  1
  Fe  Fe80  1  0.50183037  0.74791038  -0.00046415  1
  Fe  Fe81  1  0.62459564  0.62754408  0.62394856  1
  Fe  Fe82  1  0.49980864  0.24973678  0.49955303  1
  Fe  Fe83  1  0.75181724  0.74961319  0.75244638  1
  Fe  Fe84  1  0.50137155  0.49949181  0.24678161  1
  Fe  Fe85  1  0.12349406  0.37494662  0.87515007  1
  Fe  Fe86  1  0.74880731  0.50495241  0.25093511  1
  Fe  Fe87  1  0.87554213  0.62282104  0.87857869  1
  Fe  Fe88  1  0.75258115  0.74782089  0.49402562  1
  Fe  Fe89  1  0.87380094  0.87451105  0.12511655  1
  Co  Co90  1  0.62140570  0.37560533  0.62506923  1
  Co  Co91  1  -0.00026720  0.00265808  0.00354456  1
  Co  Co92  1  0.87551679  0.87866125  0.37155112  1
  Co  Co93  1  0.74960853  -0.00208555  0.00089501  1
  Co  Co94  1  0.37702475  0.87208662  0.87504814  1
  Co  Co95  1  0.87722347  0.61959575  0.37711310  1
  Co  Co96  1  0.24966389  0.74853702  0.75338818  1
  Co  Co97  1  0.12838323  0.12766473  0.12365570  1
  Co  Co98  1  0.62810850  0.37631618  0.12461323  1
  Co  Co99  1  0.87221167  0.62362906  0.12071383  1
  Co  Co100  1  0.37596314  0.62376826  0.62755433  1
  Co  Co101  1  0.87799174  0.37532225  0.62221561  1
  Co  Co102  1  0.00244423  0.49916636  0.00347295  1
  Co  Co103  1  -0.00056769  0.74820559  0.00203497  1
  Co  Co104  1  0.62423744  0.62692010  0.12690425  1
  Co  Co105  1  0.87143317  0.12533893  0.12612665  1
  Co  Co106  1  0.12634139  0.12396890  0.62547213  1
  Co  Co107  1  0.12852104  0.62614579  0.12317433  1
  Co  Co108  1  0.00425855  0.50139564  0.50102675  1
  Co  Co109  1  0.62589138  0.12516240  0.37687114  1
  Co  Co110  1  0.37267782  0.37622678  0.12851255  1
  Co  Co111  1  0.87388856  0.37733648  0.87908387  1
  Co  Co112  1  0.75378858  0.74687711  0.25171264  1
  Co  Co113  1  0.12037878  0.87465299  0.87544434  1
  Co  Co114  1  0.25008672  0.49964434  0.50066401  1
  Co  Co115  1  0.49887931  -0.00139965  0.00059613  1
  Co  Co116  1  0.74699398  0.50039588  0.50231882  1
  Co  Co117  1  0.62462525  0.62541630  0.87262663  1
  Co  Co118  1  0.37486649  0.62181251  0.37170400  1
  Co  Co119  1  0.49544155  0.75049957  0.49874671  1
  Co  Co120  1  -0.00119866  0.25053824  0.75215181  1
  Co  Co121  1  0.37316337  0.87580020  0.62798354  1
  Co  Co122  1  0.37529930  0.37609660  0.87062947  1
  Co  Co123  1  0.37639307  0.87735338  0.37119839  1
  Co  Co124  1  0.62413150  0.12712880  0.12047304  1
  Co  Co125  1  0.49969770  0.49846935  0.00077540  1
  Co  Co126  1  0.62302511  0.62636809  0.37494863  1
  Co  Co127  1  0.62464535  0.87129276  0.12488443  1
