# generated using pymatgen
data_Fe45Co19
_symmetry_space_group_name_H-M   'P 1'
_cell_length_a   11.41442566
_cell_length_b   11.41472323
_cell_length_c   11.41560446
_cell_angle_alpha   90.00805154
_cell_angle_beta   90.00265342
_cell_angle_gamma   90.00392452
_symmetry_Int_Tables_number   1
_chemical_formula_structural   Fe45Co19
_chemical_formula_sum   'Fe90 Co38'
_cell_volume   1487.36773549
_cell_formula_units_Z   2
loop_
 _symmetry_equiv_pos_site_id
 _symmetry_equiv_pos_as_xyz
  1  'x, y, z'
loop_
 _atom_site_type_symbol
 _atom_site_label
 _atom_site_symmetry_multiplicity
 _atom_site_fract_x
 _atom_site_fract_y
 _atom_site_fract_z
 _atom_site_occupancy
  Fe  Fe0  1  0.00188387  0.00053455  0.50138113  1
  Fe  Fe1  1  0.74768597  0.00132229  0.49965033  1
  Fe  Fe2  1  0.12434312  0.87308056  0.37315481  1
  Fe  Fe3  1  0.25369582  0.00109082  0.25063139  1
  Fe  Fe4  1  0.74952581  0.49964416  0.25189470  1
  Fe  Fe5  1  0.74707523  0.00161968  0.00029634  1
  Fe  Fe6  1  0.24970650  0.50149793  0.49904551  1
  Fe  Fe7  1  0.24921972  0.00046054  0.74982919  1
  Fe  Fe8  1  0.87784653  0.12783935  0.12560127  1
  Fe  Fe9  1  -0.00247358  0.74890826  0.74783893  1
  Fe  Fe10  1  0.37676120  0.12393454  0.62471703  1
  Fe  Fe11  1  0.74881868  0.74937174  -0.00110810  1
  Fe  Fe12  1  0.25075856  0.24996696  0.25506779  1
  Fe  Fe13  1  0.49719093  0.74598809  0.50426454  1
  Fe  Fe14  1  0.25201938  0.50080199  0.25200328  1
  Fe  Fe15  1  0.49833008  0.24861990  -0.00079308  1
  Fe  Fe16  1  0.49954697  0.00257184  0.00184116  1
  Fe  Fe17  1  -0.00379453  0.49691532  0.74897536  1
  Fe  Fe18  1  0.12517926  0.87295679  0.87544258  1
  Fe  Fe19  1  0.25357096  0.74940855  0.74729473  1
  Fe  Fe20  1  0.37543633  0.37505627  0.87518261  1
  Fe  Fe21  1  0.12555253  0.12734570  0.87356322  1
  Fe  Fe22  1  0.62341406  0.37697023  0.62626475  1
  Fe  Fe23  1  0.37766314  0.62721330  0.87433727  1
  Fe  Fe24  1  0.74798184  0.25065015  0.49860295  1
  Fe  Fe25  1  -0.00073026  0.74784196  0.00200460  1
  Fe  Fe26  1  0.74875788  0.24978047  0.00115876  1
  Fe  Fe27  1  0.74828426  -0.00128249  0.25091998  1
  Fe  Fe28  1  0.50066749  0.25132364  0.49966762  1
  Fe  Fe29  1  0.25161021  0.49971093  0.75052139  1
  Fe  Fe30  1  0.87395027  0.87394569  0.62355327  1
  Fe  Fe31  1  0.24751773  0.00290196  0.50014722  1
  Fe  Fe32  1  0.37748454  0.87449300  0.87607956  1
  Fe  Fe33  1  0.25036953  0.74833141  0.50126694  1
  Fe  Fe34  1  0.87492092  0.12726094  0.62431938  1
  Fe  Fe35  1  0.74726383  0.49887559  -0.00063519  1
  Fe  Fe36  1  0.24903963  0.24868017  0.49787157  1
  Fe  Fe37  1  0.87443757  0.12651207  0.87576469  1
  Fe  Fe38  1  0.87453140  0.87545102  0.87618850  1
  Fe  Fe39  1  0.75043383  0.25285509  0.74934613  1
  Fe  Fe40  1  0.74760771  0.49990240  0.49963948  1
  Fe  Fe41  1  0.00088425  0.00022348  0.74937444  1
  Fe  Fe42  1  0.75173077  0.74732445  0.50123214  1
  Fe  Fe43  1  0.49598530  0.74554784  0.24869977  1
  Fe  Fe44  1  0.62251344  0.12572116  0.12829791  1
  Fe  Fe45  1  0.00166553  0.00189530  -0.00014294  1
  Fe  Fe46  1  0.62356249  0.87417952  0.12534113  1
  Fe  Fe47  1  0.00272423  0.25108870  0.49549035  1
  Fe  Fe48  1  0.62311952  0.12556069  0.37354943  1
  Fe  Fe49  1  0.25321370  0.25064970  0.74888721  1
  Fe  Fe50  1  0.12453307  0.62474350  0.87316681  1
  Fe  Fe51  1  0.12553340  0.62505274  0.12771719  1
  Fe  Fe52  1  0.62358767  0.62793154  0.87049537  1
  Fe  Fe53  1  -0.00035707  0.49949471  0.49992554  1
  Fe  Fe54  1  0.87708452  0.62459816  0.37482161  1
  Fe  Fe55  1  0.62177926  0.37561632  0.12804156  1
  Fe  Fe56  1  0.62432077  0.37462446  0.87336496  1
  Fe  Fe57  1  0.49669795  0.25092642  0.25305651  1
  Fe  Fe58  1  0.87340674  0.62235633  0.87489829  1
  Fe  Fe59  1  0.74708142  -0.00260699  0.74851635  1
  Fe  Fe60  1  0.00329701  0.49671184  0.00056580  1
  Fe  Fe61  1  0.24834536  0.49945639  -0.00125647  1
  Fe  Fe62  1  0.87396425  0.87530920  0.12271580  1
  Fe  Fe63  1  0.50327382  -0.00028467  0.50094043  1
  Fe  Fe64  1  0.37765606  0.37950306  0.62183278  1
  Fe  Fe65  1  0.25026187  0.24982455  -0.00117629  1
  Fe  Fe66  1  0.62293739  0.12563495  0.87189461  1
  Fe  Fe67  1  0.62540921  0.62463695  0.62935951  1
  Fe  Fe68  1  0.37513893  0.37711339  0.12631104  1
  Fe  Fe69  1  0.62329556  0.87074463  0.37527516  1
  Fe  Fe70  1  0.50255110  -0.00365486  0.74632970  1
  Fe  Fe71  1  0.12571225  0.87402889  0.62522101  1
  Fe  Fe72  1  0.12455432  0.62446897  0.62591266  1
  Fe  Fe73  1  0.62467779  0.62406870  0.12643931  1
  Fe  Fe74  1  0.12387363  0.62717259  0.37290085  1
  Fe  Fe75  1  0.37569581  0.87449824  0.12440049  1
  Fe  Fe76  1  0.87604097  0.12509673  0.37415201  1
  Fe  Fe77  1  0.12594878  0.87328568  0.12581184  1
  Fe  Fe78  1  0.75326203  0.74890037  0.24866607  1
  Fe  Fe79  1  0.12450400  0.12848863  0.12719274  1
  Fe  Fe80  1  0.87741948  0.37489768  0.12543106  1
  Fe  Fe81  1  0.75107761  0.25090865  0.25081310  1
  Fe  Fe82  1  0.25126837  0.74836948  0.00131397  1
  Fe  Fe83  1  -0.00070894  -0.00121426  0.24930308  1
  Fe  Fe84  1  -0.00183899  0.25340915  0.75142311  1
  Fe  Fe85  1  0.37563986  0.87455189  0.37704056  1
  Fe  Fe86  1  0.12527223  0.37445867  0.62478270  1
  Fe  Fe87  1  0.50024360  0.50116968  -0.00071418  1
  Fe  Fe88  1  0.87615863  0.87346952  0.37637691  1
  Fe  Fe89  1  0.25145834  0.00243740  -0.00001421  1
  Co  Co90  1  0.87431607  0.62076232  0.12324342  1
  Co  Co91  1  0.49810710  0.25269700  0.74874633  1
  Co  Co92  1  -0.00240780  0.74978540  0.24803157  1
  Co  Co93  1  0.37674201  0.12331503  0.87171335  1
  Co  Co94  1  0.00161911  0.25372330  0.25479607  1
  Co  Co95  1  0.37388197  0.62079644  0.12389603  1
  Co  Co96  1  0.37741593  0.12359084  0.37761415  1
  Co  Co97  1  0.75128938  0.75241837  0.75095069  1
  Co  Co98  1  0.62150985  0.87312030  0.87715107  1
  Co  Co99  1  0.37588044  0.61983890  0.62487758  1
  Co  Co100  1  0.12711292  0.37860329  0.37542321  1
  Co  Co101  1  0.50474331  0.50250633  0.49601472  1
  Co  Co102  1  0.49850650  0.49925969  0.75203704  1
  Co  Co103  1  0.37367214  0.62409465  0.37737304  1
  Co  Co104  1  0.49981555  0.50240301  0.25329007  1
  Co  Co105  1  0.25326179  0.74956659  0.24994626  1
  Co  Co106  1  0.87307344  0.37561975  0.87943171  1
  Co  Co107  1  0.62840828  0.87075429  0.62070093  1
  Co  Co108  1  0.12433189  0.12189099  0.37276332  1
  Co  Co109  1  0.00269249  0.25303576  -0.00123693  1
  Co  Co110  1  0.87458567  0.37323923  0.62036535  1
  Co  Co111  1  0.37435641  0.12752227  0.12702891  1
  Co  Co112  1  0.62519629  0.12764602  0.62582387  1
  Co  Co113  1  0.12772578  0.37375047  0.12803398  1
  Co  Co114  1  0.00141805  0.74982405  0.50131837  1
  Co  Co115  1  0.49925000  -0.00108869  0.25034201  1
  Co  Co116  1  0.37562942  0.37766766  0.37734332  1
  Co  Co117  1  0.12410911  0.12802051  0.62692125  1
  Co  Co118  1  0.49737753  0.75353448  0.74447252  1
  Co  Co119  1  0.37192613  0.87839360  0.62221054  1
  Co  Co120  1  0.62462855  0.37390801  0.37310322  1
  Co  Co121  1  0.87282940  0.37665299  0.37608000  1
  Co  Co122  1  0.87371236  0.62398751  0.62455913  1
  Co  Co123  1  0.49994394  0.74695953  0.00311452  1
  Co  Co124  1  0.12696480  0.37502692  0.87200848  1
  Co  Co125  1  0.75214486  0.49693556  0.74929565  1
  Co  Co126  1  -0.00024678  0.49888790  0.25069190  1
  Co  Co127  1  0.62593384  0.62860622  0.37375097  1
