# generated using pymatgen
data_Fe45Co19
_symmetry_space_group_name_H-M   'P 1'
_cell_length_a   11.41668892
_cell_length_b   11.41548972
_cell_length_c   11.41635455
_cell_angle_alpha   89.99645640
_cell_angle_beta   89.99396258
_cell_angle_gamma   90.00384640
_symmetry_Int_Tables_number   1
_chemical_formula_structural   Fe45Co19
_chemical_formula_sum   'Fe90 Co38'
_cell_volume   1487.86031012
_cell_formula_units_Z   2
loop_
 _symmetry_equiv_pos_site_id
 _symmetry_equiv_pos_as_xyz
  1  'x, y, z'
loop_
 _atom_site_type_symbol
 _atom_site_label
 _atom_site_symmetry_multiplicity
 _atom_site_fract_x
 _atom_site_fract_y
 _atom_site_fract_z
 _atom_site_occupancy
  Fe  Fe0  1  0.75227870  0.49852270  0.75342324  1
  Fe  Fe1  1  0.00222725  0.00133878  0.50015529  1
  Fe  Fe2  1  0.87729641  0.12405498  0.12602027  1
  Fe  Fe3  1  0.74862666  0.50196725  0.25151389  1
  Fe  Fe4  1  0.24628110  0.00380852  0.25316872  1
  Fe  Fe5  1  0.49875989  0.74992767  0.00149562  1
  Fe  Fe6  1  0.87721796  0.12378994  0.87333547  1
  Fe  Fe7  1  0.37102826  0.62380512  0.87433249  1
  Fe  Fe8  1  0.49562260  0.00121487  0.74570872  1
  Fe  Fe9  1  0.87565151  0.62632194  0.87801785  1
  Fe  Fe10  1  0.62611048  0.62332397  0.62571612  1
  Fe  Fe11  1  0.37306379  0.37612650  0.12720597  1
  Fe  Fe12  1  0.49769822  0.74845970  0.74915783  1
  Fe  Fe13  1  0.24794824  0.49991869  -0.00019172  1
  Fe  Fe14  1  0.87427711  0.87590769  0.62588993  1
  Fe  Fe15  1  0.87462396  0.37585205  0.62440129  1
  Fe  Fe16  1  -0.00060294  0.74661968  0.50300643  1
  Fe  Fe17  1  0.12468194  0.87682224  0.87183632  1
  Fe  Fe18  1  0.49970840  0.49867292  -0.00009376  1
  Fe  Fe19  1  0.75046945  0.50138116  0.49793657  1
  Fe  Fe20  1  0.75178737  0.00068100  0.25064673  1
  Fe  Fe21  1  0.24707675  0.74911758  -0.00041436  1
  Fe  Fe22  1  0.37344333  0.87738803  0.12634233  1
  Fe  Fe23  1  0.87837721  0.12808576  0.37495649  1
  Fe  Fe24  1  0.24743241  0.24833545  0.00075908  1
  Fe  Fe25  1  0.25177980  0.25055274  0.74915957  1
  Fe  Fe26  1  0.24755391  0.00191909  -0.00249500  1
  Fe  Fe27  1  0.62397998  0.87415094  0.12814561  1
  Fe  Fe28  1  0.49817549  0.24890122  0.24929778  1
  Fe  Fe29  1  0.49980925  -0.00127475  0.00112780  1
  Fe  Fe30  1  0.62374719  0.12527453  0.87375583  1
  Fe  Fe31  1  0.37421688  0.12385179  0.12380053  1
  Fe  Fe32  1  0.37467832  0.87409337  0.87408820  1
  Fe  Fe33  1  0.49870762  0.74897827  0.50014444  1
  Fe  Fe34  1  0.25139659  0.75121594  0.49910108  1
  Fe  Fe35  1  0.62549898  0.37339598  0.37503462  1
  Fe  Fe36  1  0.75278732  0.25177620  -0.00239211  1
  Fe  Fe37  1  0.62545007  0.12575691  0.12460925  1
  Fe  Fe38  1  0.49985091  0.24977596  0.50162953  1
  Fe  Fe39  1  0.00057710  0.74859382  0.24920902  1
  Fe  Fe40  1  0.87685580  0.87606553  0.87315445  1
  Fe  Fe41  1  0.00254053  0.74698216  0.74900777  1
  Fe  Fe42  1  0.74887407  0.00061870  0.49949300  1
  Fe  Fe43  1  0.37561820  0.62194419  0.37234340  1
  Fe  Fe44  1  0.24980809  0.74819730  0.25035190  1
  Fe  Fe45  1  0.62572404  0.62394767  0.87644635  1
  Fe  Fe46  1  0.24909747  0.49819450  0.49859357  1
  Fe  Fe47  1  0.12479435  0.37000278  0.37400994  1
  Fe  Fe48  1  0.75083438  0.25182323  0.75196697  1
  Fe  Fe49  1  0.62494636  0.12666889  0.62646398  1
  Fe  Fe50  1  0.37538822  0.37455162  0.62557946  1
  Fe  Fe51  1  0.37819909  0.87832000  0.37471529  1
  Fe  Fe52  1  0.87634651  0.87406244  0.37568242  1
  Fe  Fe53  1  0.00143262  0.50309762  0.74866544  1
  Fe  Fe54  1  0.49770521  0.49736948  0.75270583  1
  Fe  Fe55  1  0.37359797  0.12366032  0.38000447  1
  Fe  Fe56  1  0.87303346  0.12359955  0.62479190  1
  Fe  Fe57  1  0.37534004  0.12640355  0.87506246  1
  Fe  Fe58  1  0.74983867  -0.00172672  -0.00139783  1
  Fe  Fe59  1  0.12719154  0.37362638  0.12768407  1
  Fe  Fe60  1  0.00368849  0.50131822  0.25143557  1
  Fe  Fe61  1  0.62671177  0.37379927  0.12385965  1
  Fe  Fe62  1  0.87596641  0.87375466  0.12437917  1
  Fe  Fe63  1  0.87521178  0.62738087  0.12362916  1
  Fe  Fe64  1  0.62265017  0.87633309  0.87353305  1
  Fe  Fe65  1  0.75014292  0.75045560  0.75147410  1
  Fe  Fe66  1  0.37119066  0.62458814  0.62626498  1
  Fe  Fe67  1  0.75049195  0.74680287  0.49800944  1
  Fe  Fe68  1  0.00075329  0.24811105  0.74716871  1
  Fe  Fe69  1  0.13039799  0.12375046  0.62241966  1
  Fe  Fe70  1  0.50019525  0.50026533  0.49939725  1
  Fe  Fe71  1  0.87416216  0.37614846  0.12595533  1
  Fe  Fe72  1  0.62512223  0.12618593  0.37433645  1
  Fe  Fe73  1  0.62538234  0.37484604  0.62634954  1
  Fe  Fe74  1  0.12518493  0.37608962  0.62480329  1
  Fe  Fe75  1  0.00150345  0.50082119  0.00073199  1
  Fe  Fe76  1  0.62479692  0.87392247  0.62448546  1
  Fe  Fe77  1  0.37484083  0.37547733  0.37187775  1
  Fe  Fe78  1  0.87539585  0.37250034  0.37554274  1
  Fe  Fe79  1  0.12309409  0.87372175  0.37440360  1
  Fe  Fe80  1  0.00101637  0.24993147  0.00128356  1
  Fe  Fe81  1  0.62252359  0.87407187  0.37281738  1
  Fe  Fe82  1  0.12407765  0.37465011  0.87409911  1
  Fe  Fe83  1  0.12738706  0.87515654  0.62679031  1
  Fe  Fe84  1  0.00174944  0.00009643  -0.00071198  1
  Fe  Fe85  1  0.37328160  0.62232695  0.12759767  1
  Fe  Fe86  1  0.12493739  0.87642838  0.12598744  1
  Fe  Fe87  1  0.62595380  0.62735716  0.12575001  1
  Fe  Fe88  1  0.00093812  0.50160155  0.50034374  1
  Fe  Fe89  1  0.49983326  0.25274405  -0.00164189  1
  Co  Co90  1  0.74827813  0.75299587  -0.00141894  1
  Co  Co91  1  0.37394474  0.87456764  0.62434103  1
  Co  Co92  1  0.00188718  0.00193820  0.74695558  1
  Co  Co93  1  0.49615442  0.74960465  0.24886593  1
  Co  Co94  1  0.12493048  0.62733237  0.37733281  1
  Co  Co95  1  0.75117128  0.49956790  0.00014360  1
  Co  Co96  1  0.75179143  0.74964545  0.25181201  1
  Co  Co97  1  0.12440952  0.62596615  0.12517641  1
  Co  Co98  1  0.00344898  0.75147404  -0.00151898  1
  Co  Co99  1  0.75145029  0.24979729  0.24938940  1
  Co  Co100  1  -0.00042045  0.24979320  0.50441898  1
  Co  Co101  1  0.74927362  -0.00078304  0.74984099  1
  Co  Co102  1  0.75067922  0.24994463  0.50128201  1
  Co  Co103  1  0.24726670  -0.00400584  0.49767018  1
  Co  Co104  1  0.37193889  0.37448710  0.87715364  1
  Co  Co105  1  0.37169870  0.12480433  0.62067215  1
  Co  Co106  1  0.24563223  0.50069203  0.25230499  1
  Co  Co107  1  0.24881064  0.75089168  0.75077813  1
  Co  Co108  1  0.87976216  0.37509059  0.87476253  1
  Co  Co109  1  0.12315799  0.12940854  0.37713683  1
  Co  Co110  1  0.50248048  0.00016586  0.50274534  1
  Co  Co111  1  0.12454783  0.12613863  0.87349040  1
  Co  Co112  1  0.87781527  0.62466074  0.37444647  1
  Co  Co113  1  0.49748504  0.25142737  0.74977569  1
  Co  Co114  1  0.12954658  0.62469799  0.62293124  1
  Co  Co115  1  0.50339696  0.49856836  0.24868325  1
  Co  Co116  1  0.25077429  0.25421685  0.50010496  1
  Co  Co117  1  0.25315054  0.00051393  0.75070348  1
  Co  Co118  1  0.62222569  0.62673715  0.37436745  1
  Co  Co119  1  0.00047406  0.25094913  0.24763680  1
  Co  Co120  1  0.62517501  0.37530118  0.87534607  1
  Co  Co121  1  0.12268272  0.12350948  0.12624385  1
  Co  Co122  1  0.87266281  0.62437615  0.62501331  1
  Co  Co123  1  0.00044782  -0.00024722  0.25219869  1
  Co  Co124  1  0.49936589  0.00298010  0.24934201  1
  Co  Co125  1  0.25130362  0.24598060  0.24995306  1
  Co  Co126  1  0.12647576  0.62293711  0.87440658  1
  Co  Co127  1  0.24967959  0.49742119  0.74927202  1
