# generated using pymatgen
data_Fe45Co19
_symmetry_space_group_name_H-M   'P 1'
_cell_length_a   11.41374324
_cell_length_b   11.41528252
_cell_length_c   11.41516363
_cell_angle_alpha   89.99467742
_cell_angle_beta   89.99212562
_cell_angle_gamma   89.99601425
_symmetry_Int_Tables_number   1
_chemical_formula_structural   Fe45Co19
_chemical_formula_sum   'Fe90 Co38'
_cell_volume   1487.29424392
_cell_formula_units_Z   2
loop_
 _symmetry_equiv_pos_site_id
 _symmetry_equiv_pos_as_xyz
  1  'x, y, z'
loop_
 _atom_site_type_symbol
 _atom_site_label
 _atom_site_symmetry_multiplicity
 _atom_site_fract_x
 _atom_site_fract_y
 _atom_site_fract_z
 _atom_site_occupancy
  Fe  Fe0  1  0.87177545  0.62659497  0.62196480  1
  Fe  Fe1  1  -0.00177032  0.00134150  0.75033840  1
  Fe  Fe2  1  0.62455164  0.87587678  0.37474234  1
  Fe  Fe3  1  0.24696194  0.25317913  0.00137692  1
  Fe  Fe4  1  0.37488433  0.37493378  0.87446386  1
  Fe  Fe5  1  0.75087519  -0.00079079  0.50149261  1
  Fe  Fe6  1  0.87540261  0.12502629  0.37494353  1
  Fe  Fe7  1  0.24937704  0.74958396  0.74767505  1
  Fe  Fe8  1  0.87501565  0.87393723  0.37416856  1
  Fe  Fe9  1  0.62850119  0.62461073  0.37734425  1
  Fe  Fe10  1  0.50182871  0.74991220  -0.00092925  1
  Fe  Fe11  1  0.49766098  -0.00051222  -0.00192276  1
  Fe  Fe12  1  0.24878129  0.24890756  0.74908562  1
  Fe  Fe13  1  0.12486828  0.87730019  0.62420495  1
  Fe  Fe14  1  0.62729102  0.62303699  0.87477154  1
  Fe  Fe15  1  0.37509298  0.87507617  0.62375390  1
  Fe  Fe16  1  0.12552756  0.62230237  0.62331588  1
  Fe  Fe17  1  0.74966131  0.00224787  0.24880316  1
  Fe  Fe18  1  0.24875085  0.25067183  0.49899258  1
  Fe  Fe19  1  0.49802967  0.00278945  0.49676495  1
  Fe  Fe20  1  0.24944151  0.49913273  0.00142271  1
  Fe  Fe21  1  0.25073091  0.75025642  0.00029077  1
  Fe  Fe22  1  0.49999541  0.00318627  0.25183451  1
  Fe  Fe23  1  0.00008009  0.25104207  0.49799958  1
  Fe  Fe24  1  0.87521058  0.62762684  0.12429242  1
  Fe  Fe25  1  0.37625600  0.87259068  0.12760240  1
  Fe  Fe26  1  0.12446780  0.12220638  0.87686964  1
  Fe  Fe27  1  0.37549118  0.37369115  0.62448122  1
  Fe  Fe28  1  -0.00193041  0.50148164  0.74943045  1
  Fe  Fe29  1  -0.00060610  0.74885063  0.74904657  1
  Fe  Fe30  1  0.62759567  0.87475504  0.87174987  1
  Fe  Fe31  1  0.24446304  0.25418778  0.25164540  1
  Fe  Fe32  1  0.37440702  0.12674534  0.12553008  1
  Fe  Fe33  1  0.50295377  0.74876961  0.74798583  1
  Fe  Fe34  1  0.75032752  0.25276922  0.00049759  1
  Fe  Fe35  1  0.87887710  0.12455503  0.12146610  1
  Fe  Fe36  1  0.49774146  0.00213153  0.75246010  1
  Fe  Fe37  1  0.25248542  0.00296489  0.74921393  1
  Fe  Fe38  1  0.25018376  0.74992357  0.25234532  1
  Fe  Fe39  1  0.25290227  -0.00187534  -0.00035523  1
  Fe  Fe40  1  -0.00033459  0.75288666  0.00157418  1
  Fe  Fe41  1  0.25034182  -0.00096736  0.25067970  1
  Fe  Fe42  1  0.50064982  0.49813770  0.00036191  1
  Fe  Fe43  1  0.87340787  0.87421261  0.62595390  1
  Fe  Fe44  1  0.12485603  0.62244452  0.12734768  1
  Fe  Fe45  1  0.00038588  -0.00086615  0.24856853  1
  Fe  Fe46  1  0.62568813  0.62403220  0.12500513  1
  Fe  Fe47  1  0.74934973  0.49727912  0.74717615  1
  Fe  Fe48  1  0.49929892  0.24794508  0.49711931  1
  Fe  Fe49  1  0.50072897  0.24970142  0.75085658  1
  Fe  Fe50  1  0.62409582  0.12423281  0.62409763  1
  Fe  Fe51  1  0.00039332  0.75033072  0.50043081  1
  Fe  Fe52  1  0.12542605  0.87577875  0.37664626  1
  Fe  Fe53  1  0.75041803  0.49697696  0.00186678  1
  Fe  Fe54  1  -0.00133081  0.24866644  0.75380472  1
  Fe  Fe55  1  0.75385209  0.49563318  0.49945203  1
  Fe  Fe56  1  0.75010655  0.24808319  0.24718039  1
  Fe  Fe57  1  0.50354197  0.24710821  0.25054220  1
  Fe  Fe58  1  0.87728567  0.12526719  0.62503715  1
  Fe  Fe59  1  0.37548536  0.62570505  0.12649174  1
  Fe  Fe60  1  0.00022001  0.75085951  0.24942656  1
  Fe  Fe61  1  0.50057388  0.49852344  0.49963318  1
  Fe  Fe62  1  0.75135121  0.25082976  0.50138981  1
  Fe  Fe63  1  0.50213931  0.25242570  0.00160868  1
  Fe  Fe64  1  0.50241316  0.75067035  0.50082331  1
  Fe  Fe65  1  0.62673513  0.12614096  0.87694002  1
  Fe  Fe66  1  0.25089074  0.49729044  0.49766304  1
  Fe  Fe67  1  0.12267085  0.62114478  0.37555833  1
  Fe  Fe68  1  0.37329625  0.62415515  0.62468887  1
  Fe  Fe69  1  0.50005500  0.50083773  0.25205674  1
  Fe  Fe70  1  0.37479925  0.62689233  0.37576194  1
  Fe  Fe71  1  0.12539080  0.62506902  0.87464576  1
  Fe  Fe72  1  0.87294693  0.87429783  0.87374306  1
  Fe  Fe73  1  0.75121550  0.25037459  0.75050484  1
  Fe  Fe74  1  0.87279403  0.62507898  0.87609342  1
  Fe  Fe75  1  0.50175148  0.49906757  0.74786221  1
  Fe  Fe76  1  0.25177579  0.00261806  0.50078251  1
  Fe  Fe77  1  0.75153349  -0.00152553  0.00025500  1
  Fe  Fe78  1  0.12187757  0.37629136  0.62417423  1
  Fe  Fe79  1  0.12617457  0.87519978  0.87503251  1
  Fe  Fe80  1  0.62470424  0.87540150  0.12575109  1
  Fe  Fe81  1  0.62704018  0.37321913  0.37372870  1
  Fe  Fe82  1  0.37521837  0.37542772  0.12911954  1
  Fe  Fe83  1  0.12370389  0.12301300  0.37720380  1
  Fe  Fe84  1  0.12246593  0.37847372  0.87538125  1
  Fe  Fe85  1  0.74856455  0.74994855  0.24991589  1
  Fe  Fe86  1  0.75457495  0.49932828  0.25106998  1
  Fe  Fe87  1  0.37426265  0.62477038  0.87322342  1
  Fe  Fe88  1  0.88190529  0.37323030  0.12509335  1
  Fe  Fe89  1  0.12313785  0.12372892  0.12246923  1
  Co  Co90  1  0.87381440  0.62942791  0.37718598  1
  Co  Co91  1  0.87539249  0.37764745  0.87557660  1
  Co  Co92  1  0.50241249  0.74846811  0.25155104  1
  Co  Co93  1  0.12192643  0.12536721  0.62440001  1
  Co  Co94  1  0.37470752  0.87376909  0.37543425  1
  Co  Co95  1  0.87638202  0.37046753  0.37219207  1
  Co  Co96  1  0.25163234  0.49876195  0.25195731  1
  Co  Co97  1  -0.00070222  -0.00415677  0.00030519  1
  Co  Co98  1  0.24983756  0.49843837  0.74983008  1
  Co  Co99  1  0.75120921  0.00287657  0.74823328  1
  Co  Co100  1  0.62404828  0.37295599  0.62332527  1
  Co  Co101  1  0.24820911  0.74887391  0.50002219  1
  Co  Co102  1  0.62600269  0.37556206  0.87389207  1
  Co  Co103  1  0.37392747  0.87179551  0.87314643  1
  Co  Co104  1  0.37584211  0.12662603  0.62485637  1
  Co  Co105  1  0.00210530  0.25029249  -0.00324926  1
  Co  Co106  1  0.87760807  0.37319998  0.62679269  1
  Co  Co107  1  0.37147510  0.12728122  0.37192825  1
  Co  Co108  1  0.11992113  0.37875778  0.12701441  1
  Co  Co109  1  0.87401117  0.12417449  0.87837796  1
  Co  Co110  1  -0.00527475  0.50218544  0.25184611  1
  Co  Co111  1  0.74861763  0.75113090  0.00026938  1
  Co  Co112  1  0.00037783  0.50244561  0.00019278  1
  Co  Co113  1  0.12757270  0.87458286  0.12502373  1
  Co  Co114  1  0.37391590  0.12908315  0.87751992  1
  Co  Co115  1  0.62858458  0.12592046  0.37645484  1
  Co  Co116  1  -0.00246320  -0.00100804  0.50020473  1
  Co  Co117  1  0.62503911  0.37700910  0.12876634  1
  Co  Co118  1  0.74784808  0.74891255  0.74804832  1
  Co  Co119  1  0.62300052  0.87893575  0.62614374  1
  Co  Co120  1  0.11992733  0.37971535  0.37477310  1
  Co  Co121  1  0.62491106  0.12309871  0.12118806  1
  Co  Co122  1  0.37744603  0.37255900  0.37308161  1
  Co  Co123  1  0.00314893  0.24641104  0.25134199  1
  Co  Co124  1  0.74756532  0.75463304  0.50092412  1
  Co  Co125  1  -0.00509453  0.49996079  0.49981389  1
  Co  Co126  1  0.62824405  0.62278875  0.62174919  1
  Co  Co127  1  0.87289990  0.87465961  0.12693281  1
