# generated using pymatgen
data_Fe45Co19
_symmetry_space_group_name_H-M   'P 1'
_cell_length_a   11.41506117
_cell_length_b   11.41550751
_cell_length_c   11.41380694
_cell_angle_alpha   89.99736423
_cell_angle_beta   90.00224859
_cell_angle_gamma   89.99679813
_symmetry_Int_Tables_number   1
_chemical_formula_structural   Fe45Co19
_chemical_formula_sum   'Fe90 Co38'
_cell_volume   1487.31852812
_cell_formula_units_Z   2
loop_
 _symmetry_equiv_pos_site_id
 _symmetry_equiv_pos_as_xyz
  1  'x, y, z'
loop_
 _atom_site_type_symbol
 _atom_site_label
 _atom_site_symmetry_multiplicity
 _atom_site_fract_x
 _atom_site_fract_y
 _atom_site_fract_z
 _atom_site_occupancy
  Fe  Fe0  1  0.25009858  0.00221763  0.00070997  1
  Fe  Fe1  1  0.74879444  0.49631347  0.75496663  1
  Fe  Fe2  1  0.12495091  0.62269277  0.37142701  1
  Fe  Fe3  1  0.37751255  0.37413923  0.87703670  1
  Fe  Fe4  1  0.00135737  0.50201109  0.00211454  1
  Fe  Fe5  1  0.50145070  0.49864592  0.75114948  1
  Fe  Fe6  1  0.62120488  0.87880119  0.87966027  1
  Fe  Fe7  1  0.24893600  0.00178307  0.49942310  1
  Fe  Fe8  1  -0.00149288  0.75115403  0.25039795  1
  Fe  Fe9  1  -0.00311322  -0.00040030  0.24976706  1
  Fe  Fe10  1  0.37793176  0.37461823  0.37238491  1
  Fe  Fe11  1  0.75180827  0.75474414  0.24888117  1
  Fe  Fe12  1  0.62518258  0.62563341  0.37508888  1
  Fe  Fe13  1  0.25187232  0.49933551  0.50036700  1
  Fe  Fe14  1  0.37568295  0.87432166  0.62233942  1
  Fe  Fe15  1  0.87294247  0.37358149  0.62550536  1
  Fe  Fe16  1  0.37802808  0.87735781  0.87654379  1
  Fe  Fe17  1  0.37670939  0.37313911  0.12376615  1
  Fe  Fe18  1  0.75055498  0.00103223  0.00344320  1
  Fe  Fe19  1  0.50302881  0.50402026  -0.00063999  1
  Fe  Fe20  1  0.25110461  0.25112455  0.49739935  1
  Fe  Fe21  1  0.37524391  0.12530180  0.13225429  1
  Fe  Fe22  1  0.87287473  0.62611764  0.62615453  1
  Fe  Fe23  1  0.50332109  0.24434815  0.00009514  1
  Fe  Fe24  1  0.87254413  0.12464662  0.37466346  1
  Fe  Fe25  1  0.12629120  0.12621017  0.62678613  1
  Fe  Fe26  1  0.25067939  0.49735323  0.75029400  1
  Fe  Fe27  1  -0.00160538  0.00083682  0.74731160  1
  Fe  Fe28  1  0.75142081  0.75491770  0.75190222  1
  Fe  Fe29  1  0.37508587  0.62607225  0.62584558  1
  Fe  Fe30  1  0.50298052  0.24765658  0.75053540  1
  Fe  Fe31  1  -0.00100344  0.49930045  0.75137948  1
  Fe  Fe32  1  -0.00270505  0.24811261  0.75139105  1
  Fe  Fe33  1  0.87663202  0.87904280  0.87803302  1
  Fe  Fe34  1  0.12435591  0.37424993  0.62497045  1
  Fe  Fe35  1  0.74832155  0.25109743  0.75682060  1
  Fe  Fe36  1  0.62414439  0.87192276  0.37714399  1
  Fe  Fe37  1  0.86758662  0.12339746  0.62513096  1
  Fe  Fe38  1  0.12473874  0.62733914  0.62855487  1
  Fe  Fe39  1  0.24975019  0.74783098  0.49847721  1
  Fe  Fe40  1  0.50237154  0.00272659  0.49994159  1
  Fe  Fe41  1  0.37606386  0.12320523  0.87292734  1
  Fe  Fe42  1  0.37777695  0.87479616  0.37700918  1
  Fe  Fe43  1  0.12410306  0.87595955  0.87350516  1
  Fe  Fe44  1  0.12134370  0.87621055  0.37736183  1
  Fe  Fe45  1  0.12549506  0.12542899  0.37312639  1
  Fe  Fe46  1  0.12389601  0.87614313  0.12476984  1
  Fe  Fe47  1  0.87433617  0.62556947  0.37407912  1
  Fe  Fe48  1  0.24742658  0.50045115  0.00109238  1
  Fe  Fe49  1  0.25063605  0.75170184  0.25049593  1
  Fe  Fe50  1  0.62615975  0.37423104  0.12128291  1
  Fe  Fe51  1  0.74898845  0.25460582  0.25229468  1
  Fe  Fe52  1  0.12277877  0.37223293  0.87676886  1
  Fe  Fe53  1  0.50184570  0.24924948  0.49956718  1
  Fe  Fe54  1  0.50023556  0.75010039  0.24885422  1
  Fe  Fe55  1  0.00000663  0.74932012  -0.00060447  1
  Fe  Fe56  1  0.49900922  0.50095229  0.49986818  1
  Fe  Fe57  1  0.62750777  0.12356945  0.12796451  1
  Fe  Fe58  1  0.62532913  0.12650295  0.37390022  1
  Fe  Fe59  1  0.87432201  0.37361342  0.12122066  1
  Fe  Fe60  1  0.87608271  0.87558479  0.61733708  1
  Fe  Fe61  1  0.24820012  0.24671661  0.00196093  1
  Fe  Fe62  1  0.12576973  0.62802626  0.87237980  1
  Fe  Fe63  1  0.25084381  -0.00162817  0.74891065  1
  Fe  Fe64  1  0.75091061  0.49712360  0.24994886  1
  Fe  Fe65  1  0.37543272  0.12559645  0.62408003  1
  Fe  Fe66  1  -0.00013604  0.24966420  0.24788149  1
  Fe  Fe67  1  0.12216404  0.87216080  0.62458668  1
  Fe  Fe68  1  0.25171057  0.00000817  0.25237821  1
  Fe  Fe69  1  0.50246467  0.50000343  0.24808672  1
  Fe  Fe70  1  0.00076626  0.00566677  0.00270086  1
  Fe  Fe71  1  0.24795741  0.49649195  0.24638304  1
  Fe  Fe72  1  0.50092808  0.75194843  0.75098177  1
  Fe  Fe73  1  0.37869155  0.87647403  0.12490849  1
  Fe  Fe74  1  0.25116722  0.75098919  -0.00001708  1
  Fe  Fe75  1  0.62584114  0.37355547  0.62403798  1
  Fe  Fe76  1  0.75101884  0.49742410  0.49791161  1
  Fe  Fe77  1  0.87274839  0.62707394  0.12311169  1
  Fe  Fe78  1  0.75046442  -0.00578215  0.25083351  1
  Fe  Fe79  1  0.25080917  0.25153397  0.75076443  1
  Fe  Fe80  1  0.62663219  0.62584719  0.62596489  1
  Fe  Fe81  1  0.87150006  0.62463905  0.87593197  1
  Fe  Fe82  1  0.62546698  0.87550421  0.62230534  1
  Fe  Fe83  1  -0.00095396  0.24297432  0.00068525  1
  Fe  Fe84  1  -0.00215340  0.50111890  0.50088436  1
  Fe  Fe85  1  -0.00297698  0.24766460  0.50129425  1
  Fe  Fe86  1  0.37372267  0.62547378  0.12614651  1
  Fe  Fe87  1  0.62871325  0.62878757  0.12208220  1
  Fe  Fe88  1  0.12070281  0.37613613  0.37371126  1
  Fe  Fe89  1  0.37545972  0.62563943  0.87355211  1
  Co  Co90  1  0.62637756  0.11753538  0.87302859  1
  Co  Co91  1  0.24896978  0.25302749  0.25070599  1
  Co  Co92  1  0.87036474  0.12567129  0.12830263  1
  Co  Co93  1  0.75039457  0.75428278  -0.00178367  1
  Co  Co94  1  0.75001524  0.74870145  0.49993380  1
  Co  Co95  1  0.87236745  0.12171877  0.87345132  1
  Co  Co96  1  0.62261393  0.37716491  0.37691173  1
  Co  Co97  1  0.12714267  0.12280873  0.12932569  1
  Co  Co98  1  0.00113684  0.74491281  0.49883185  1
  Co  Co99  1  0.50267592  -0.00124092  0.25170332  1
  Co  Co100  1  0.62936127  0.12570610  0.62637499  1
  Co  Co101  1  0.50317208  0.25134224  0.24909609  1
  Co  Co102  1  0.87705016  0.87515400  0.38035943  1
  Co  Co103  1  0.12553008  0.12369775  0.87168111  1
  Co  Co104  1  0.62781405  0.62791754  0.87376809  1
  Co  Co105  1  0.49968874  -0.00018031  0.74601344  1
  Co  Co106  1  0.87786156  0.37426973  0.87938501  1
  Co  Co107  1  0.37534229  0.62359412  0.37197268  1
  Co  Co108  1  0.87751541  0.87507028  0.12283688  1
  Co  Co109  1  0.74711491  0.00052579  0.49633420  1
  Co  Co110  1  0.00041720  0.00556905  0.50111851  1
  Co  Co111  1  0.75012499  -0.00615344  0.74934168  1
  Co  Co112  1  0.87859644  0.37492331  0.37404846  1
  Co  Co113  1  0.12186125  0.37197572  0.12306132  1
  Co  Co114  1  0.25260074  0.75263005  0.75064352  1
  Co  Co115  1  0.37679588  0.37363994  0.62526601  1
  Co  Co116  1  0.49982242  0.74735376  0.50024678  1
  Co  Co117  1  0.75010561  0.25149782  0.49702095  1
  Co  Co118  1  0.49884160  0.74684215  0.00025816  1
  Co  Co119  1  0.74797077  0.24699155  -0.00358603  1
  Co  Co120  1  -0.00196269  0.50110917  0.24525736  1
  Co  Co121  1  0.74829199  0.49888576  -0.00156902  1
  Co  Co122  1  0.37688695  0.12615115  0.37329461  1
  Co  Co123  1  0.49831313  0.00581578  0.00410125  1
  Co  Co124  1  -0.00579633  0.75160640  0.75070497  1
  Co  Co125  1  0.62223680  0.87476686  0.12152579  1
  Co  Co126  1  0.62187282  0.37461519  0.87804390  1
  Co  Co127  1  0.12572771  0.62909134  0.12636205  1
