# generated using pymatgen
data_Fe45Co19
_symmetry_space_group_name_H-M   'P 1'
_cell_length_a   11.41434098
_cell_length_b   11.41357727
_cell_length_c   11.41467882
_cell_angle_alpha   90.00231732
_cell_angle_beta   89.99610809
_cell_angle_gamma   90.00753937
_symmetry_Int_Tables_number   1
_chemical_formula_structural   Fe45Co19
_chemical_formula_sum   'Fe90 Co38'
_cell_volume   1487.08679120
_cell_formula_units_Z   2
loop_
 _symmetry_equiv_pos_site_id
 _symmetry_equiv_pos_as_xyz
  1  'x, y, z'
loop_
 _atom_site_type_symbol
 _atom_site_label
 _atom_site_symmetry_multiplicity
 _atom_site_fract_x
 _atom_site_fract_y
 _atom_site_fract_z
 _atom_site_occupancy
  Fe  Fe0  1  0.75250954  0.50012208  0.50313236  1
  Fe  Fe1  1  0.62751749  0.37435338  0.37478545  1
  Fe  Fe2  1  0.50281525  0.74969451  0.50120356  1
  Fe  Fe3  1  0.87425613  0.62585557  0.12377170  1
  Fe  Fe4  1  0.12391709  0.62310145  0.37749398  1
  Fe  Fe5  1  0.63132882  0.37455401  0.63069090  1
  Fe  Fe6  1  0.62355678  0.62228796  0.37757128  1
  Fe  Fe7  1  0.75016065  -0.00089709  0.50082985  1
  Fe  Fe8  1  0.12278831  0.37465663  0.87206690  1
  Fe  Fe9  1  0.75101887  0.50095216  0.24916076  1
  Fe  Fe10  1  0.12649117  0.12620738  0.12333564  1
  Fe  Fe11  1  -0.00626373  0.24863792  0.75077316  1
  Fe  Fe12  1  0.37100638  0.36648125  0.62201607  1
  Fe  Fe13  1  0.12515781  0.87542387  0.87307451  1
  Fe  Fe14  1  0.12593337  0.87502346  0.62560678  1
  Fe  Fe15  1  0.00178679  0.50098079  0.00122229  1
  Fe  Fe16  1  0.37392125  0.62608398  0.62393193  1
  Fe  Fe17  1  0.74683226  0.74593891  -0.00194218  1
  Fe  Fe18  1  0.74440481  0.74506762  0.74784118  1
  Fe  Fe19  1  0.50072700  0.00136316  0.75004092  1
  Fe  Fe20  1  0.00048804  0.50020374  0.24852196  1
  Fe  Fe21  1  0.24918206  0.49859296  0.00030457  1
  Fe  Fe22  1  -0.00048399  -0.00272837  0.00171427  1
  Fe  Fe23  1  0.75028675  0.25562258  -0.00529697  1
  Fe  Fe24  1  0.62382125  0.87645301  0.37572803  1
  Fe  Fe25  1  0.75033378  0.00056172  0.24794678  1
  Fe  Fe26  1  0.50146807  0.74611468  -0.00192608  1
  Fe  Fe27  1  0.50414480  0.25010146  0.24816213  1
  Fe  Fe28  1  0.00253835  0.74775153  0.74687909  1
  Fe  Fe29  1  0.37231658  0.37379396  0.12731822  1
  Fe  Fe30  1  0.25190692  0.49852592  0.74867580  1
  Fe  Fe31  1  0.62487011  0.87303275  0.12439411  1
  Fe  Fe32  1  0.12118508  0.12469495  0.37522355  1
  Fe  Fe33  1  0.37688826  0.87572125  0.62612658  1
  Fe  Fe34  1  0.25148253  0.00205405  0.25085350  1
  Fe  Fe35  1  0.37382267  0.62466662  0.12536088  1
  Fe  Fe36  1  -0.00021392  0.74998105  0.25019281  1
  Fe  Fe37  1  0.87307198  0.87287063  0.87361702  1
  Fe  Fe38  1  -0.00107235  0.49765222  0.50513204  1
  Fe  Fe39  1  0.87529719  0.37611758  0.12435692  1
  Fe  Fe40  1  0.74927341  0.74889684  0.25217601  1
  Fe  Fe41  1  0.24926399  0.49903622  0.25282309  1
  Fe  Fe42  1  0.87298497  0.12643503  0.12270253  1
  Fe  Fe43  1  0.62683582  0.37736067  0.12333924  1
  Fe  Fe44  1  0.12506960  0.12499164  0.87612846  1
  Fe  Fe45  1  0.24722162  0.25148763  0.25351995  1
  Fe  Fe46  1  0.24864813  0.75059430  0.49975476  1
  Fe  Fe47  1  0.62747783  0.12795743  0.37498542  1
  Fe  Fe48  1  0.37311806  0.12675195  0.12249430  1
  Fe  Fe49  1  0.37590387  0.87495219  0.12442546  1
  Fe  Fe50  1  0.37536930  0.87386219  0.87394889  1
  Fe  Fe51  1  0.12586952  0.12967717  0.62619980  1
  Fe  Fe52  1  0.24949862  0.74954066  -0.00178686  1
  Fe  Fe53  1  -0.00108610  -0.00041988  0.50186665  1
  Fe  Fe54  1  0.50035582  0.00347147  0.50160918  1
  Fe  Fe55  1  0.50100755  0.00293774  0.24839433  1
  Fe  Fe56  1  0.62855170  0.12729992  0.62612330  1
  Fe  Fe57  1  0.49829555  0.49492837  0.50170560  1
  Fe  Fe58  1  0.12760797  0.62422595  0.87248131  1
  Fe  Fe59  1  -0.00014253  0.25183347  -0.00104189  1
  Fe  Fe60  1  -0.00299229  0.00118052  0.74893168  1
  Fe  Fe61  1  -0.00298610  0.25408900  0.50100296  1
  Fe  Fe62  1  0.50211897  0.74739049  0.74954298  1
  Fe  Fe63  1  0.50022809  0.25063783  0.75039519  1
  Fe  Fe64  1  0.24976589  0.49501015  0.49856106  1
  Fe  Fe65  1  0.87633593  0.62585041  0.37924534  1
  Fe  Fe66  1  0.37638198  0.87573649  0.37612941  1
  Fe  Fe67  1  0.61986344  0.61364375  0.87351302  1
  Fe  Fe68  1  0.12401429  0.87765589  0.37388483  1
  Fe  Fe69  1  0.37795323  0.13076578  0.37768071  1
  Fe  Fe70  1  0.50042858  0.74752595  0.25155077  1
  Fe  Fe71  1  0.12534756  0.87568752  0.12721032  1
  Fe  Fe72  1  -0.00179502  0.50194574  0.74494404  1
  Fe  Fe73  1  0.50123948  -0.00036880  0.00005824  1
  Fe  Fe74  1  0.49943342  0.50027256  0.24972652  1
  Fe  Fe75  1  0.75175825  0.00124628  0.75000218  1
  Fe  Fe76  1  0.74977052  -0.00230402  0.00046880  1
  Fe  Fe77  1  0.87357442  0.12665763  0.37540831  1
  Fe  Fe78  1  -0.00192008  0.25161084  0.25027941  1
  Fe  Fe79  1  0.00092866  0.74997860  0.00052454  1
  Fe  Fe80  1  0.25057075  0.74856696  0.25229846  1
  Fe  Fe81  1  0.25098810  0.00217857  0.74958257  1
  Fe  Fe82  1  0.25135859  0.00388972  0.50113642  1
  Fe  Fe83  1  0.87267419  0.87074249  0.62427605  1
  Fe  Fe84  1  0.87575967  0.62375751  0.87430857  1
  Fe  Fe85  1  0.62628479  0.12558094  0.87582429  1
  Fe  Fe86  1  0.87616618  0.87449926  0.37580948  1
  Fe  Fe87  1  0.37769941  0.37703318  0.87628401  1
  Fe  Fe88  1  0.37373788  0.12497879  0.87673999  1
  Fe  Fe89  1  0.50113710  0.25244013  0.00007966  1
  Co  Co90  1  0.75122428  0.25249379  0.49948147  1
  Co  Co91  1  0.75107821  0.49930525  -0.00063793  1
  Co  Co92  1  0.75071105  0.25172355  0.24858922  1
  Co  Co93  1  0.12080066  0.37709061  0.37467435  1
  Co  Co94  1  0.00355662  0.75094375  0.50071539  1
  Co  Co95  1  0.49769986  0.49932817  0.00496544  1
  Co  Co96  1  0.62458414  0.87782356  0.62542588  1
  Co  Co97  1  0.74580461  0.74995586  0.49949031  1
  Co  Co98  1  0.62304125  0.61958867  0.62400571  1
  Co  Co99  1  0.37591799  0.62363312  0.37771880  1
  Co  Co100  1  0.87432854  0.62941514  0.62270805  1
  Co  Co101  1  0.37810401  0.37105215  0.37411206  1
  Co  Co102  1  0.37582681  0.62298802  0.87402023  1
  Co  Co103  1  0.49368523  0.49665001  0.74309220  1
  Co  Co104  1  0.24937133  -0.00182631  -0.00089680  1
  Co  Co105  1  0.24574979  0.25053130  0.49501417  1
  Co  Co106  1  0.87402967  0.37685026  0.37441906  1
  Co  Co107  1  0.75389316  0.24905174  0.75674632  1
  Co  Co108  1  0.87322346  0.12617840  0.62233766  1
  Co  Co109  1  0.12508003  0.37410635  0.12606287  1
  Co  Co110  1  0.87517458  0.12135516  0.87932599  1
  Co  Co111  1  0.87180052  0.37283109  0.62821816  1
  Co  Co112  1  0.12846171  0.62314687  0.62405911  1
  Co  Co113  1  0.12549360  0.37120043  0.62801770  1
  Co  Co114  1  0.87766828  0.38001428  0.87399429  1
  Co  Co115  1  0.62269528  0.38058762  0.87148274  1
  Co  Co116  1  0.62769531  0.12612842  0.12130931  1
  Co  Co117  1  0.25045461  0.75012299  0.74953900  1
  Co  Co118  1  0.87272884  0.87204655  0.12381832  1
  Co  Co119  1  0.12599129  0.62547317  0.12532610  1
  Co  Co120  1  0.37456193  0.12938859  0.62377946  1
  Co  Co121  1  0.25182368  0.24980367  0.75499117  1
  Co  Co122  1  0.62600966  0.87565706  0.87429655  1
  Co  Co123  1  0.24976101  0.25364279  -0.00291688  1
  Co  Co124  1  -0.00254752  0.00134210  0.24744139  1
  Co  Co125  1  0.75474094  0.50273250  0.74997295  1
  Co  Co126  1  0.50586144  0.25205096  0.50242046  1
  Co  Co127  1  0.62576336  0.62421797  0.12573810  1
