# generated using pymatgen
data_Fe45Co19
_symmetry_space_group_name_H-M   'P 1'
_cell_length_a   11.41585009
_cell_length_b   11.41565018
_cell_length_c   11.41511207
_cell_angle_alpha   90.01654012
_cell_angle_beta   89.99810207
_cell_angle_gamma   90.00215198
_symmetry_Int_Tables_number   1
_chemical_formula_structural   Fe45Co19
_chemical_formula_sum   'Fe90 Co38'
_cell_volume   1487.60993441
_cell_formula_units_Z   2
loop_
 _symmetry_equiv_pos_site_id
 _symmetry_equiv_pos_as_xyz
  1  'x, y, z'
loop_
 _atom_site_type_symbol
 _atom_site_label
 _atom_site_symmetry_multiplicity
 _atom_site_fract_x
 _atom_site_fract_y
 _atom_site_fract_z
 _atom_site_occupancy
  Fe  Fe0  1  0.00048903  0.24968693  0.24801110  1
  Fe  Fe1  1  0.00057439  0.74607618  0.00302589  1
  Fe  Fe2  1  -0.00195550  0.49877074  0.74777860  1
  Fe  Fe3  1  0.74743391  -0.00190964  0.75282228  1
  Fe  Fe4  1  0.74617704  0.25228227  0.25408214  1
  Fe  Fe5  1  0.50322272  -0.00019575  0.00091776  1
  Fe  Fe6  1  0.25106257  0.24911356  -0.00210812  1
  Fe  Fe7  1  0.87835717  0.62380694  0.37264581  1
  Fe  Fe8  1  0.62738147  0.12621555  0.62667033  1
  Fe  Fe9  1  0.37306639  0.87335041  0.12292133  1
  Fe  Fe10  1  0.62731505  0.62993637  0.62368181  1
  Fe  Fe11  1  0.37592423  0.62418548  0.37473987  1
  Fe  Fe12  1  0.62591889  0.87641377  0.12766523  1
  Fe  Fe13  1  0.25179563  0.24993678  0.25092535  1
  Fe  Fe14  1  0.75013549  0.50073617  0.74914610  1
  Fe  Fe15  1  0.75136235  0.75162383  0.25169956  1
  Fe  Fe16  1  0.12301044  0.12436962  0.87556370  1
  Fe  Fe17  1  0.24989649  0.49998010  0.74982017  1
  Fe  Fe18  1  0.37754637  0.12452928  0.37388011  1
  Fe  Fe19  1  0.24950142  0.50210115  -0.00001218  1
  Fe  Fe20  1  0.12632711  0.37315970  0.12307643  1
  Fe  Fe21  1  0.62305727  0.62697691  0.37639812  1
  Fe  Fe22  1  0.37810093  0.37687305  0.87453236  1
  Fe  Fe23  1  0.24842580  0.00218123  0.50268805  1
  Fe  Fe24  1  0.37743558  0.12640254  0.12621093  1
  Fe  Fe25  1  0.62838095  0.37333741  0.62311535  1
  Fe  Fe26  1  0.00109520  0.00271124  0.00422435  1
  Fe  Fe27  1  0.87211150  0.12472001  0.62440411  1
  Fe  Fe28  1  -0.00220740  0.24983957  0.75004004  1
  Fe  Fe29  1  -0.00179619  0.75032673  0.50031140  1
  Fe  Fe30  1  0.12594051  0.87499402  0.62691925  1
  Fe  Fe31  1  0.37536636  0.87698936  0.37717885  1
  Fe  Fe32  1  0.24747207  0.74857952  -0.00566098  1
  Fe  Fe33  1  0.74651389  0.00036159  0.00002922  1
  Fe  Fe34  1  0.87243836  0.12634514  0.12622695  1
  Fe  Fe35  1  0.12357050  0.37353226  0.37566513  1
  Fe  Fe36  1  0.49821989  0.75259089  0.25142246  1
  Fe  Fe37  1  0.37673366  0.87705903  0.87113183  1
  Fe  Fe38  1  0.87710325  0.87789894  0.37444982  1
  Fe  Fe39  1  0.37459867  0.37398276  0.62474530  1
  Fe  Fe40  1  0.50229707  0.75058967  -0.00052912  1
  Fe  Fe41  1  0.50383735  0.25214796  0.00281482  1
  Fe  Fe42  1  0.37953567  0.12296905  0.87347955  1
  Fe  Fe43  1  0.50107074  0.49921308  0.00145855  1
  Fe  Fe44  1  0.74893916  -0.00055054  0.49750744  1
  Fe  Fe45  1  0.50374415  0.25179180  0.75100949  1
  Fe  Fe46  1  0.12295163  0.87552144  0.37323878  1
  Fe  Fe47  1  0.12391039  0.12339967  0.37617968  1
  Fe  Fe48  1  0.87321878  0.37455843  0.12562802  1
  Fe  Fe49  1  0.37742427  0.37485661  0.37581915  1
  Fe  Fe50  1  -0.00020718  0.74933901  0.75110347  1
  Fe  Fe51  1  0.87318548  0.87408221  0.62442015  1
  Fe  Fe52  1  0.87676848  0.12286427  0.37447124  1
  Fe  Fe53  1  0.75019009  0.49697671  0.25360056  1
  Fe  Fe54  1  0.12632623  0.37214703  0.62363402  1
  Fe  Fe55  1  0.87475076  0.37502123  0.87650931  1
  Fe  Fe56  1  0.62717851  0.86985190  0.62359680  1
  Fe  Fe57  1  0.87515197  0.87442248  0.87791158  1
  Fe  Fe58  1  0.12623910  0.87254148  0.12579855  1
  Fe  Fe59  1  0.24882395  0.00062257  -0.00111164  1
  Fe  Fe60  1  0.87431783  0.87492560  0.12449312  1
  Fe  Fe61  1  0.12295596  0.37538246  0.87660063  1
  Fe  Fe62  1  -0.00088580  0.24782207  0.50120528  1
  Fe  Fe63  1  0.37534650  0.12496645  0.62609649  1
  Fe  Fe64  1  0.74689577  0.24909757  -0.00198335  1
  Fe  Fe65  1  0.87478557  0.62608082  0.87541739  1
  Fe  Fe66  1  0.24957370  0.24808886  0.75093529  1
  Fe  Fe67  1  0.75228918  0.50161112  0.49839761  1
  Fe  Fe68  1  0.50190601  0.24931040  0.49841911  1
  Fe  Fe69  1  0.62711429  0.62548838  0.12644726  1
  Fe  Fe70  1  0.62129081  0.12038624  0.36965460  1
  Fe  Fe71  1  0.87403570  0.12433706  0.87530153  1
  Fe  Fe72  1  0.24993633  -0.00006165  0.24842548  1
  Fe  Fe73  1  0.25006878  0.50029756  0.49965412  1
  Fe  Fe74  1  0.37271887  0.87366061  0.62821099  1
  Fe  Fe75  1  0.37715003  0.62430783  0.87109123  1
  Fe  Fe76  1  0.50157389  -0.00229580  0.50203413  1
  Fe  Fe77  1  -0.00012391  0.50277201  0.00518530  1
  Fe  Fe78  1  0.62559879  0.62684014  0.87368125  1
  Fe  Fe79  1  0.49841029  0.50257343  0.50426354  1
  Fe  Fe80  1  0.24957062  0.49919791  0.24907413  1
  Fe  Fe81  1  0.25098842  0.74822464  0.49896979  1
  Fe  Fe82  1  0.00077736  0.00082297  0.74872150  1
  Fe  Fe83  1  0.37327548  0.62670933  0.12528453  1
  Fe  Fe84  1  -0.00015559  0.49988761  0.50006444  1
  Fe  Fe85  1  0.87134957  0.37257757  0.62142004  1
  Fe  Fe86  1  0.50033365  0.49718768  0.24705872  1
  Fe  Fe87  1  0.12535182  0.62576780  0.62619191  1
  Fe  Fe88  1  0.12334636  0.62666524  0.37069771  1
  Fe  Fe89  1  0.74972668  0.50127859  -0.00037526  1
  Co  Co90  1  0.00129127  0.00097586  0.24592415  1
  Co  Co91  1  0.50357338  -0.00158872  0.74721940  1
  Co  Co92  1  0.62836588  0.37687950  0.12389232  1
  Co  Co93  1  0.62447923  0.87490062  0.37496144  1
  Co  Co94  1  0.74871997  0.75100310  0.00125187  1
  Co  Co95  1  0.75221338  0.75019756  0.75256811  1
  Co  Co96  1  0.50170792  0.25481467  0.24840983  1
  Co  Co97  1  0.50265002  0.50084201  0.74627013  1
  Co  Co98  1  0.24792994  0.00296042  0.75068970  1
  Co  Co99  1  -0.00146751  0.24900469  0.00045701  1
  Co  Co100  1  0.62429610  0.87338154  0.87421111  1
  Co  Co101  1  0.74803005  0.24641831  0.49378174  1
  Co  Co102  1  0.12430995  0.12676811  0.62451009  1
  Co  Co103  1  0.62184446  0.37838727  0.37898296  1
  Co  Co104  1  0.25382841  0.75195030  0.25262259  1
  Co  Co105  1  0.62504382  0.37711556  0.87497426  1
  Co  Co106  1  0.24774666  0.74975064  0.75434388  1
  Co  Co107  1  0.12163628  0.62165788  0.87327758  1
  Co  Co108  1  -0.00328244  0.75083185  0.24735821  1
  Co  Co109  1  0.49566305  -0.00454779  0.24782794  1
  Co  Co110  1  0.75438729  0.74972492  0.49533006  1
  Co  Co111  1  0.87749093  0.37405717  0.37655383  1
  Co  Co112  1  0.25157503  0.24898582  0.49869219  1
  Co  Co113  1  0.75045986  0.25060003  0.75328622  1
  Co  Co114  1  0.12764144  0.12686244  0.12421001  1
  Co  Co115  1  0.12144320  0.87763392  0.87613763  1
  Co  Co116  1  0.50029864  0.74955958  0.74887828  1
  Co  Co117  1  0.75282919  -0.00120735  0.25033360  1
  Co  Co118  1  -0.00005141  -0.00058385  0.50228561  1
  Co  Co119  1  0.37309996  0.37505589  0.12359523  1
  Co  Co120  1  0.87511399  0.62603242  0.62490616  1
  Co  Co121  1  0.49621928  0.75064003  0.50000821  1
  Co  Co122  1  0.62394827  0.12368913  0.12898153  1
  Co  Co123  1  0.00091293  0.49807120  0.24650960  1
  Co  Co124  1  0.62345875  0.12435701  0.87456497  1
  Co  Co125  1  0.12893037  0.62812790  0.12878926  1
  Co  Co126  1  0.37144899  0.62714047  0.62761447  1
  Co  Co127  1  0.87025050  0.62340173  0.12762413  1
