# generated using pymatgen
data_Fe45Co19
_symmetry_space_group_name_H-M   'P 1'
_cell_length_a   11.41416940
_cell_length_b   11.41543812
_cell_length_c   11.41411584
_cell_angle_alpha   90.01369818
_cell_angle_beta   89.99528917
_cell_angle_gamma   90.00638545
_symmetry_Int_Tables_number   1
_chemical_formula_structural   Fe45Co19
_chemical_formula_sum   'Fe90 Co38'
_cell_volume   1487.23349168
_cell_formula_units_Z   2
loop_
 _symmetry_equiv_pos_site_id
 _symmetry_equiv_pos_as_xyz
  1  'x, y, z'
loop_
 _atom_site_type_symbol
 _atom_site_label
 _atom_site_symmetry_multiplicity
 _atom_site_fract_x
 _atom_site_fract_y
 _atom_site_fract_z
 _atom_site_occupancy
  Fe  Fe0  1  0.12520150  0.87070814  0.87294881  1
  Fe  Fe1  1  0.87520468  0.12510784  0.12050387  1
  Fe  Fe2  1  0.25032969  0.25076192  0.50042264  1
  Fe  Fe3  1  -0.00079593  0.74902192  0.50106025  1
  Fe  Fe4  1  -0.00141768  0.74992769  -0.00101516  1
  Fe  Fe5  1  0.12326180  0.12610774  0.37362018  1
  Fe  Fe6  1  0.37500966  0.12466426  0.62579845  1
  Fe  Fe7  1  0.24803662  0.00194407  0.49990344  1
  Fe  Fe8  1  0.62651818  0.87649842  0.37394826  1
  Fe  Fe9  1  0.50125305  0.25192138  0.49849649  1
  Fe  Fe10  1  0.12560893  0.87180690  0.62747885  1
  Fe  Fe11  1  0.00036237  0.49627716  0.75194668  1
  Fe  Fe12  1  0.87569578  0.37725685  0.37639213  1
  Fe  Fe13  1  0.74104151  0.50396743  -0.00087140  1
  Fe  Fe14  1  0.12718026  0.62780471  0.12203585  1
  Fe  Fe15  1  0.62223880  0.12541592  0.87486923  1
  Fe  Fe16  1  0.74915214  0.00200997  0.24850159  1
  Fe  Fe17  1  0.12521736  0.62600498  0.62969411  1
  Fe  Fe18  1  0.74931961  0.74943797  0.49975924  1
  Fe  Fe19  1  0.00078189  0.25300342  0.50099384  1
  Fe  Fe20  1  -0.00206937  0.25180527  0.24651372  1
  Fe  Fe21  1  0.00020905  -0.00048311  0.50046426  1
  Fe  Fe22  1  0.62564777  0.37508625  0.62777756  1
  Fe  Fe23  1  -0.00000275  0.00034478  0.75354156  1
  Fe  Fe24  1  0.25164959  0.24896290  0.24811070  1
  Fe  Fe25  1  0.50170365  0.49978529  0.75351938  1
  Fe  Fe26  1  0.37805499  0.87736608  0.87410676  1
  Fe  Fe27  1  0.62551532  0.12607487  0.62492864  1
  Fe  Fe28  1  0.50227867  0.00383076  0.24693813  1
  Fe  Fe29  1  0.49754369  0.74751280  0.49892310  1
  Fe  Fe30  1  0.74952684  0.49957868  0.50204926  1
  Fe  Fe31  1  0.37616315  0.62547388  0.87766922  1
  Fe  Fe32  1  0.12754920  0.37286368  0.12112930  1
  Fe  Fe33  1  0.49927195  0.50013259  0.50124580  1
  Fe  Fe34  1  0.87465881  0.87576820  0.62546543  1
  Fe  Fe35  1  0.37225906  0.87691397  0.37296637  1
  Fe  Fe36  1  0.24922555  0.50019095  0.75503540  1
  Fe  Fe37  1  0.37540763  0.62430215  0.12260752  1
  Fe  Fe38  1  0.50140863  -0.00005608  0.50102239  1
  Fe  Fe39  1  0.87259881  0.37707034  0.12107264  1
  Fe  Fe40  1  0.87308802  0.87412776  0.12324496  1
  Fe  Fe41  1  0.12312232  0.12521268  0.12066217  1
  Fe  Fe42  1  0.12523807  0.37610081  0.37502208  1
  Fe  Fe43  1  0.62503764  0.87425930  0.62592388  1
  Fe  Fe44  1  0.25389783  0.74586031  0.50047804  1
  Fe  Fe45  1  0.25223396  0.24974634  0.75365588  1
  Fe  Fe46  1  0.87392675  0.87532010  0.37450161  1
  Fe  Fe47  1  0.49830896  0.24957031  0.75205196  1
  Fe  Fe48  1  0.74841425  0.00084250  0.75051437  1
  Fe  Fe49  1  0.75067720  0.74905477  0.75224265  1
  Fe  Fe50  1  0.62303946  0.62260665  0.37307525  1
  Fe  Fe51  1  0.87535214  0.12622686  0.62579855  1
  Fe  Fe52  1  0.75040451  0.25056435  -0.00415925  1
  Fe  Fe53  1  0.74594612  -0.00219095  -0.00026907  1
  Fe  Fe54  1  0.37778770  0.37607948  0.88086899  1
  Fe  Fe55  1  -0.00119577  0.74795081  0.24769352  1
  Fe  Fe56  1  0.37597359  0.37563799  0.37226144  1
  Fe  Fe57  1  0.12363080  0.12831718  0.62912751  1
  Fe  Fe58  1  0.50230900  0.00187330  0.00197181  1
  Fe  Fe59  1  0.25010370  0.00109783  0.75207793  1
  Fe  Fe60  1  0.87545483  0.62299282  0.62662932  1
  Fe  Fe61  1  0.74653262  0.25099037  0.25170383  1
  Fe  Fe62  1  0.24945882  -0.00046680  -0.00115161  1
  Fe  Fe63  1  0.25374625  0.24759075  -0.00163976  1
  Fe  Fe64  1  0.50387339  0.75057661  0.00054362  1
  Fe  Fe65  1  0.74838071  0.49946967  0.24710661  1
  Fe  Fe66  1  0.75311184  0.25291714  0.75395427  1
  Fe  Fe67  1  0.37676153  0.12558693  0.37261647  1
  Fe  Fe68  1  0.62413021  0.62495115  0.62775936  1
  Fe  Fe69  1  0.75088651  0.74716159  0.24703519  1
  Fe  Fe70  1  0.12728820  0.87278215  0.37314732  1
  Fe  Fe71  1  0.50141632  0.49509732  0.24382562  1
  Fe  Fe72  1  -0.00371743  0.25383217  0.75693412  1
  Fe  Fe73  1  0.00010534  0.00018779  0.24787490  1
  Fe  Fe74  1  0.37331527  0.87616102  0.12650997  1
  Fe  Fe75  1  0.87587139  0.62282146  0.37462665  1
  Fe  Fe76  1  0.37378864  0.37655478  0.62660747  1
  Fe  Fe77  1  0.12544069  0.62461940  0.37458534  1
  Fe  Fe78  1  0.87378727  0.62278055  0.87687764  1
  Fe  Fe79  1  0.37435240  0.87612515  0.62567308  1
  Fe  Fe80  1  0.87454913  0.12461580  0.37575640  1
  Fe  Fe81  1  0.49801180  0.75109675  0.74956693  1
  Fe  Fe82  1  0.87242542  0.87571293  0.87670462  1
  Fe  Fe83  1  0.00478878  0.49886895  -0.00126040  1
  Fe  Fe84  1  0.25052002  0.50083320  0.50149673  1
  Fe  Fe85  1  0.74822587  0.25112771  0.49842175  1
  Fe  Fe86  1  0.12708324  0.87333804  0.12616647  1
  Fe  Fe87  1  0.00057728  0.49948033  0.24704111  1
  Fe  Fe88  1  0.25062809  0.50046084  0.24645631  1
  Fe  Fe89  1  0.49816538  0.75020414  0.25077364  1
  Co  Co90  1  0.74792896  0.74859054  -0.00017913  1
  Co  Co91  1  0.12767038  0.37157523  0.87712715  1
  Co  Co92  1  0.74955697  0.49794965  0.75054863  1
  Co  Co93  1  0.87464196  0.37448491  0.62362827  1
  Co  Co94  1  0.12636165  0.37400337  0.62763987  1
  Co  Co95  1  0.37578072  0.62212381  0.62896384  1
  Co  Co96  1  0.62455263  0.12211601  0.37596054  1
  Co  Co97  1  0.25536083  0.74979857  0.75115021  1
  Co  Co98  1  -0.00505850  0.74976019  0.75202985  1
  Co  Co99  1  0.62414333  0.37870691  0.37503271  1
  Co  Co100  1  0.37695037  0.62044806  0.37161549  1
  Co  Co101  1  0.50266386  0.25040443  0.24874425  1
  Co  Co102  1  0.62810116  0.12862477  0.12236423  1
  Co  Co103  1  0.50494542  0.50147498  0.00088910  1
  Co  Co104  1  0.24782609  0.00282526  0.24923321  1
  Co  Co105  1  0.49770556  0.24766217  0.00217226  1
  Co  Co106  1  0.12335773  0.12689575  0.87710111  1
  Co  Co107  1  0.87232464  0.38160680  0.88007461  1
  Co  Co108  1  0.62403776  0.62818319  0.87127706  1
  Co  Co109  1  0.24889579  0.50216939  -0.00156174  1
  Co  Co110  1  0.25229409  0.74672567  0.24922657  1
  Co  Co111  1  0.75057759  -0.00011736  0.50209463  1
  Co  Co112  1  0.00185546  -0.00417706  -0.00085135  1
  Co  Co113  1  -0.00314259  0.25327505  -0.00196580  1
  Co  Co114  1  0.50141633  0.00101226  0.74770636  1
  Co  Co115  1  0.87568296  0.12119485  0.87833439  1
  Co  Co116  1  0.37448864  0.37497526  0.12129102  1
  Co  Co117  1  0.37427276  0.12432689  0.12551647  1
  Co  Co118  1  0.00149972  0.50017634  0.50215516  1
  Co  Co119  1  0.37721264  0.12220461  0.87502589  1
  Co  Co120  1  0.12442812  0.62885497  0.87342321  1
  Co  Co121  1  0.62549773  0.87334415  0.12682162  1
  Co  Co122  1  0.87511850  0.62239631  0.12095919  1
  Co  Co123  1  0.62272456  0.62806425  0.12798301  1
  Co  Co124  1  0.62612751  0.37035403  0.12024764  1
  Co  Co125  1  0.62369437  0.87469215  0.87351919  1
  Co  Co126  1  0.25177402  0.75165596  -0.00143969  1
  Co  Co127  1  0.62267376  0.37273567  0.87547921  1
