# generated using pymatgen
data_Fe45Co19
_symmetry_space_group_name_H-M   'P 1'
_cell_length_a   11.41472304
_cell_length_b   11.41586301
_cell_length_c   11.41435335
_cell_angle_alpha   90.00308262
_cell_angle_beta   89.99982524
_cell_angle_gamma   89.99982629
_symmetry_Int_Tables_number   1
_chemical_formula_structural   Fe45Co19
_chemical_formula_sum   'Fe90 Co38'
_cell_volume   1487.39199185
_cell_formula_units_Z   2
loop_
 _symmetry_equiv_pos_site_id
 _symmetry_equiv_pos_as_xyz
  1  'x, y, z'
loop_
 _atom_site_type_symbol
 _atom_site_label
 _atom_site_symmetry_multiplicity
 _atom_site_fract_x
 _atom_site_fract_y
 _atom_site_fract_z
 _atom_site_occupancy
  Fe  Fe0  1  0.12579991  0.62677088  0.87551636  1
  Fe  Fe1  1  0.49999040  0.49879899  0.49416627  1
  Fe  Fe2  1  0.12510686  0.37310252  0.37295248  1
  Fe  Fe3  1  -0.00237872  0.24856905  0.50038013  1
  Fe  Fe4  1  0.25160193  0.00087514  0.74967969  1
  Fe  Fe5  1  0.62633954  0.62788774  0.87485988  1
  Fe  Fe6  1  0.37580659  0.12598890  0.37552624  1
  Fe  Fe7  1  0.37534710  0.62370613  0.87664637  1
  Fe  Fe8  1  0.62666100  0.86913867  0.37097983  1
  Fe  Fe9  1  0.24955235  0.25086077  0.00378058  1
  Fe  Fe10  1  0.87233564  0.37376078  0.87317524  1
  Fe  Fe11  1  -0.00158650  0.75280819  -0.00025484  1
  Fe  Fe12  1  0.12673436  0.87355331  0.37675420  1
  Fe  Fe13  1  0.62766599  0.36860185  0.87720535  1
  Fe  Fe14  1  0.61909984  0.87792582  0.62808742  1
  Fe  Fe15  1  0.37915885  0.37778968  0.12209387  1
  Fe  Fe16  1  0.37853516  0.62301326  0.62585528  1
  Fe  Fe17  1  0.37936100  0.87816669  0.62412563  1
  Fe  Fe18  1  0.49887664  0.25291887  0.25006564  1
  Fe  Fe19  1  0.37473118  0.12821563  0.87606854  1
  Fe  Fe20  1  0.00069760  0.50166605  0.49924495  1
  Fe  Fe21  1  0.50223494  0.00222077  -0.00290424  1
  Fe  Fe22  1  0.24637783  0.49971080  0.00165856  1
  Fe  Fe23  1  0.25154959  0.24918895  0.50116786  1
  Fe  Fe24  1  0.74888882  0.50110352  0.24960862  1
  Fe  Fe25  1  0.37766211  0.87768283  0.12461628  1
  Fe  Fe26  1  0.50321903  0.00031273  0.25213929  1
  Fe  Fe27  1  0.74952087  0.49865046  0.50250482  1
  Fe  Fe28  1  0.75228686  0.75239452  0.00254539  1
  Fe  Fe29  1  0.74819856  0.25203236  0.50761938  1
  Fe  Fe30  1  0.12587238  0.62726872  0.37437896  1
  Fe  Fe31  1  0.37553291  0.87478114  0.37646122  1
  Fe  Fe32  1  0.74994885  -0.00105186  -0.00215905  1
  Fe  Fe33  1  0.25112851  0.74981821  0.74828758  1
  Fe  Fe34  1  0.12408884  0.87638661  0.12491160  1
  Fe  Fe35  1  0.38197978  0.12326377  0.62146533  1
  Fe  Fe36  1  0.87728742  0.11890923  0.12819266  1
  Fe  Fe37  1  -0.00150868  0.24904730  0.74857641  1
  Fe  Fe38  1  0.25156258  0.74944156  0.24648012  1
  Fe  Fe39  1  0.87229242  0.12426351  0.87081812  1
  Fe  Fe40  1  0.12480860  0.12397836  0.62512629  1
  Fe  Fe41  1  0.12539372  0.12704537  0.37404697  1
  Fe  Fe42  1  0.12599892  0.12555788  0.87557651  1
  Fe  Fe43  1  0.87038166  0.87723908  0.37104160  1
  Fe  Fe44  1  -0.00286290  0.75042226  0.24924312  1
  Fe  Fe45  1  0.24831033  0.00035195  0.25073374  1
  Fe  Fe46  1  0.87246204  0.62546507  0.87388688  1
  Fe  Fe47  1  0.87528506  0.87755656  0.62782289  1
  Fe  Fe48  1  0.87215792  0.12148095  0.62624949  1
  Fe  Fe49  1  0.37737946  0.62587080  0.37327639  1
  Fe  Fe50  1  0.37633887  0.12330248  0.12505666  1
  Fe  Fe51  1  0.12571741  0.87651220  0.62498905  1
  Fe  Fe52  1  0.00140166  0.75124686  0.75052256  1
  Fe  Fe53  1  0.25013328  -0.00035917  -0.00117090  1
  Fe  Fe54  1  0.62318765  0.62216984  0.62548716  1
  Fe  Fe55  1  0.62615195  0.87457772  0.12567799  1
  Fe  Fe56  1  0.62829217  0.13010294  0.87289474  1
  Fe  Fe57  1  0.74831315  0.49870457  0.00011016  1
  Fe  Fe58  1  0.12324580  0.37527187  0.62391708  1
  Fe  Fe59  1  0.25313312  0.25063085  0.74814236  1
  Fe  Fe60  1  0.50104094  0.49711538  0.75612544  1
  Fe  Fe61  1  0.25222920  0.74862125  0.50319450  1
  Fe  Fe62  1  0.87369810  0.62333947  0.62767294  1
  Fe  Fe63  1  0.62669394  0.12878806  0.37652206  1
  Fe  Fe64  1  0.24904252  0.49890383  0.74927440  1
  Fe  Fe65  1  0.74754265  0.74995484  0.50253659  1
  Fe  Fe66  1  0.87179357  0.62531100  0.37640741  1
  Fe  Fe67  1  0.37831979  0.37533855  0.62374247  1
  Fe  Fe68  1  0.74754896  0.75255856  0.74950197  1
  Fe  Fe69  1  0.12585072  0.37269680  0.87557702  1
  Fe  Fe70  1  -0.00044601  -0.00268626  -0.00366342  1
  Fe  Fe71  1  0.24854143  0.50027129  0.24791665  1
  Fe  Fe72  1  0.49995836  0.74917793  0.00062292  1
  Fe  Fe73  1  0.00047464  0.50050929  0.75182389  1
  Fe  Fe74  1  0.62759164  0.37402999  0.37399758  1
  Fe  Fe75  1  0.62444134  0.12846973  0.12349965  1
  Fe  Fe76  1  0.62214878  0.62377689  0.12798627  1
  Fe  Fe77  1  0.87754944  0.37826749  0.12584993  1
  Fe  Fe78  1  0.24884772  0.25079014  0.24519656  1
  Fe  Fe79  1  0.24962884  0.75001513  0.00160622  1
  Fe  Fe80  1  0.87544540  0.37330521  0.37565514  1
  Fe  Fe81  1  0.37885846  0.62150200  0.12447811  1
  Fe  Fe82  1  -0.00178848  0.24980396  0.00212056  1
  Fe  Fe83  1  -0.00027072  0.00059654  0.49764090  1
  Fe  Fe84  1  0.74593795  -0.00034882  0.49996396  1
  Fe  Fe85  1  0.75361488  0.24899800  0.24730271  1
  Fe  Fe86  1  0.37698949  0.87372893  0.87458075  1
  Fe  Fe87  1  0.87828246  0.62192958  0.12358570  1
  Fe  Fe88  1  0.24897883  0.50103515  0.50011630  1
  Fe  Fe89  1  -0.00202346  0.75004825  0.50047446  1
  Co  Co90  1  0.74632905  -0.00183665  0.75164628  1
  Co  Co91  1  0.75281240  0.74535154  0.24622496  1
  Co  Co92  1  0.62386940  0.87250097  0.87736471  1
  Co  Co93  1  0.50159412  0.49653007  0.25268268  1
  Co  Co94  1  0.49908762  0.25085958  0.75099835  1
  Co  Co95  1  0.87364325  0.87478470  0.87221609  1
  Co  Co96  1  0.49839657  0.75081321  0.24928416  1
  Co  Co97  1  0.87879299  0.37841141  0.62538321  1
  Co  Co98  1  0.37292620  0.37558158  0.87826251  1
  Co  Co99  1  0.00281157  0.00011035  0.25505354  1
  Co  Co100  1  0.74968342  0.25245115  0.74231544  1
  Co  Co101  1  0.75624650  0.24826589  0.00389554  1
  Co  Co102  1  0.25006625  0.00176627  0.49958942  1
  Co  Co103  1  0.50068123  0.74976850  0.50000884  1
  Co  Co104  1  0.12104145  0.62588752  0.12438750  1
  Co  Co105  1  0.62562504  0.62644637  0.37439166  1
  Co  Co106  1  -0.00214654  0.24750174  0.24877713  1
  Co  Co107  1  0.49976364  0.74853530  0.75017380  1
  Co  Co108  1  0.37101719  0.37363344  0.37473993  1
  Co  Co109  1  0.87094889  0.12517826  0.37755853  1
  Co  Co110  1  0.50123138  0.25233927  0.49832716  1
  Co  Co111  1  0.12030531  0.37633128  0.12583865  1
  Co  Co112  1  0.00159051  0.00080567  0.75058877  1
  Co  Co113  1  0.12696366  0.87502075  0.87380171  1
  Co  Co114  1  0.74514910  0.00372157  0.25009472  1
  Co  Co115  1  0.50015987  0.00245934  0.75603611  1
  Co  Co116  1  -0.00000650  0.50145425  0.25432068  1
  Co  Co117  1  0.12359636  0.12214832  0.12281951  1
  Co  Co118  1  0.12334469  0.62521195  0.62500891  1
  Co  Co119  1  0.49792493  0.24975247  -0.00062343  1
  Co  Co120  1  0.74802618  0.49678915  0.75107231  1
  Co  Co121  1  0.62163980  0.12251556  0.62641269  1
  Co  Co122  1  0.50400739  -0.00115755  0.49386892  1
  Co  Co123  1  -0.00017625  0.49904645  -0.00494823  1
  Co  Co124  1  0.61915492  0.37814514  0.62558636  1
  Co  Co125  1  0.50559646  0.49863787  -0.00317029  1
  Co  Co126  1  0.87346616  0.88000537  0.12839259  1
  Co  Co127  1  0.62552424  0.37171132  0.12440024  1
