# generated using pymatgen
data_Fe45Co19
_symmetry_space_group_name_H-M   'P 1'
_cell_length_a   11.41370602
_cell_length_b   11.41339194
_cell_length_c   11.41367759
_cell_angle_alpha   89.99172176
_cell_angle_beta   90.00262461
_cell_angle_gamma   90.00187096
_symmetry_Int_Tables_number   1
_chemical_formula_structural   Fe45Co19
_chemical_formula_sum   'Fe90 Co38'
_cell_volume   1486.84949201
_cell_formula_units_Z   2
loop_
 _symmetry_equiv_pos_site_id
 _symmetry_equiv_pos_as_xyz
  1  'x, y, z'
loop_
 _atom_site_type_symbol
 _atom_site_label
 _atom_site_symmetry_multiplicity
 _atom_site_fract_x
 _atom_site_fract_y
 _atom_site_fract_z
 _atom_site_occupancy
  Fe  Fe0  1  0.37609937  0.12874064  0.12656391  1
  Fe  Fe1  1  0.87446679  0.62204900  0.62482888  1
  Fe  Fe2  1  0.62210048  0.13098290  0.12745302  1
  Fe  Fe3  1  0.87529484  0.12703053  0.62156747  1
  Fe  Fe4  1  0.12507537  0.37555482  0.62330831  1
  Fe  Fe5  1  0.12355417  0.12515799  0.37564340  1
  Fe  Fe6  1  0.25267517  0.49985112  -0.00042436  1
  Fe  Fe7  1  0.37389006  0.37604337  0.87260914  1
  Fe  Fe8  1  0.62323234  0.12930668  0.37413267  1
  Fe  Fe9  1  0.87404215  0.87412510  0.62239557  1
  Fe  Fe10  1  0.62437508  0.12548648  0.87358682  1
  Fe  Fe11  1  0.25297740  0.74794030  -0.00049993  1
  Fe  Fe12  1  0.00251749  0.74763184  0.00134051  1
  Fe  Fe13  1  0.49996587  0.00062117  0.00088038  1
  Fe  Fe14  1  0.74912064  0.00264835  0.25021946  1
  Fe  Fe15  1  0.37555859  0.12488887  0.87337550  1
  Fe  Fe16  1  0.49755334  0.49550633  0.24865973  1
  Fe  Fe17  1  0.00260311  0.74915314  0.74876203  1
  Fe  Fe18  1  -0.00068109  0.25313287  0.74992395  1
  Fe  Fe19  1  0.62427784  0.87491299  0.87285603  1
  Fe  Fe20  1  0.00094571  0.00047357  0.74824297  1
  Fe  Fe21  1  0.25063046  0.74789946  0.49785275  1
  Fe  Fe22  1  0.74763345  -0.00126005  0.49817862  1
  Fe  Fe23  1  0.87309248  0.37574419  0.12607029  1
  Fe  Fe24  1  0.00123701  0.74768463  0.50005253  1
  Fe  Fe25  1  0.75045715  0.74805621  0.75065250  1
  Fe  Fe26  1  0.87414682  0.62422651  0.12659109  1
  Fe  Fe27  1  0.74912676  0.74796586  0.25267204  1
  Fe  Fe28  1  0.25016932  0.00265298  0.00254929  1
  Fe  Fe29  1  0.74936043  0.25010562  0.00070077  1
  Fe  Fe30  1  0.62330906  0.87383799  0.12817258  1
  Fe  Fe31  1  0.62555506  0.37536448  0.87517572  1
  Fe  Fe32  1  0.12379181  0.12641478  0.87475944  1
  Fe  Fe33  1  0.12118741  0.37736482  0.37530651  1
  Fe  Fe34  1  0.74779033  0.49560752  0.25339206  1
  Fe  Fe35  1  0.12499786  0.12669119  0.62240861  1
  Fe  Fe36  1  0.24877699  0.00263845  0.49825588  1
  Fe  Fe37  1  0.62458513  0.62804111  0.62140957  1
  Fe  Fe38  1  -0.00171021  0.24996738  0.24862851  1
  Fe  Fe39  1  0.50207962  -0.00501286  0.50186979  1
  Fe  Fe40  1  0.87504171  0.87443831  0.12602073  1
  Fe  Fe41  1  0.62433995  0.37482377  0.62287698  1
  Fe  Fe42  1  0.37245135  0.87686280  0.87310150  1
  Fe  Fe43  1  0.87510003  0.12855775  0.37741676  1
  Fe  Fe44  1  0.00233077  0.00147131  0.00307598  1
  Fe  Fe45  1  0.74794807  0.00046218  0.00190192  1
  Fe  Fe46  1  0.62523211  0.12543445  0.62410503  1
  Fe  Fe47  1  0.62161334  0.62509272  0.87374531  1
  Fe  Fe48  1  0.37792582  0.37583103  0.38046437  1
  Fe  Fe49  1  0.13061083  0.62318741  0.12898923  1
  Fe  Fe50  1  0.24969357  0.25057844  0.74866324  1
  Fe  Fe51  1  0.87620979  0.12588419  0.87634143  1
  Fe  Fe52  1  0.12571332  0.87612893  0.37313270  1
  Fe  Fe53  1  0.00215390  0.74778864  0.24956832  1
  Fe  Fe54  1  0.62247822  0.62368873  0.12677593  1
  Fe  Fe55  1  0.12956258  0.87522162  0.12828660  1
  Fe  Fe56  1  0.37369903  0.12639095  0.62161402  1
  Fe  Fe57  1  0.00174346  0.49928061  0.00171998  1
  Fe  Fe58  1  0.49965668  0.25060787  0.74963262  1
  Fe  Fe59  1  0.49627197  0.75288211  0.74629287  1
  Fe  Fe60  1  0.00040633  0.00245744  0.24841707  1
  Fe  Fe61  1  0.75109609  0.00015968  0.74951862  1
  Fe  Fe62  1  0.25354798  0.24978089  0.25589037  1
  Fe  Fe63  1  0.49835829  -0.00161668  0.74600986  1
  Fe  Fe64  1  0.12944545  0.37380387  0.12667584  1
  Fe  Fe65  1  0.74843059  0.74922931  0.00001516  1
  Fe  Fe66  1  0.87768383  0.62164165  0.37434939  1
  Fe  Fe67  1  0.25050613  0.49843723  0.50102923  1
  Fe  Fe68  1  0.50078584  0.25094263  0.50055376  1
  Fe  Fe69  1  0.49766409  0.00091569  0.25097291  1
  Fe  Fe70  1  0.75184410  0.25314455  0.74838088  1
  Fe  Fe71  1  0.25111904  0.24948498  -0.00206997  1
  Fe  Fe72  1  0.12791167  0.87586457  0.87322415  1
  Fe  Fe73  1  0.37332646  0.87655365  0.37461261  1
  Fe  Fe74  1  0.49778905  0.49742756  0.00229468  1
  Fe  Fe75  1  0.49636896  0.74968385  0.00150054  1
  Fe  Fe76  1  0.74803487  0.50092361  -0.00053839  1
  Fe  Fe77  1  0.12831106  0.62233293  0.87198432  1
  Fe  Fe78  1  0.00009262  0.25233417  0.00088919  1
  Fe  Fe79  1  0.37387854  0.62465041  0.62378067  1
  Fe  Fe80  1  0.87669737  0.87482716  0.87683000  1
  Fe  Fe81  1  0.12635485  0.62135623  0.37297957  1
  Fe  Fe82  1  0.49918995  0.49894312  0.74689658  1
  Fe  Fe83  1  0.87565814  0.62217503  0.87388147  1
  Fe  Fe84  1  0.49518364  0.74885953  0.25096448  1
  Fe  Fe85  1  0.00156103  0.49738597  0.74972707  1
  Fe  Fe86  1  0.12829195  0.87460299  0.62556649  1
  Fe  Fe87  1  0.87587548  0.87529305  0.37440816  1
  Fe  Fe88  1  0.75021481  0.49683030  0.49822176  1
  Fe  Fe89  1  0.61920397  0.62508381  0.37854160  1
  Co  Co90  1  0.49909811  0.25198230  -0.00302537  1
  Co  Co91  1  0.00123332  0.25107929  0.50070474  1
  Co  Co92  1  0.12703037  0.62306260  0.62564455  1
  Co  Co93  1  0.37219339  0.37197520  0.12407423  1
  Co  Co94  1  0.37675813  0.62256042  0.87257604  1
  Co  Co95  1  0.37344823  0.62278573  0.12761297  1
  Co  Co96  1  0.62495419  0.37238528  0.12467695  1
  Co  Co97  1  0.24839242  0.25198081  0.49681786  1
  Co  Co98  1  0.75090624  0.25272097  0.25215501  1
  Co  Co99  1  0.12767576  0.12858140  0.12684025  1
  Co  Co100  1  0.37335369  0.87571563  0.12649803  1
  Co  Co101  1  0.24892698  0.00523972  0.74881367  1
  Co  Co102  1  0.87437144  0.12591598  0.12378850  1
  Co  Co103  1  0.87386439  0.37699874  0.87553711  1
  Co  Co104  1  0.74894600  0.25330173  0.49956862  1
  Co  Co105  1  0.74661356  0.49924719  0.74817829  1
  Co  Co106  1  0.25122620  0.74738469  0.75113964  1
  Co  Co107  1  0.49885511  0.49907783  0.50372425  1
  Co  Co108  1  0.36761206  0.87667764  0.62419004  1
  Co  Co109  1  0.75221972  0.74834295  0.49598433  1
  Co  Co110  1  0.49604095  0.25452470  0.25190726  1
  Co  Co111  1  0.62383406  0.87244574  0.37295705  1
  Co  Co112  1  0.37705077  0.62219411  0.37686928  1
  Co  Co113  1  0.62963208  0.87197812  0.62494957  1
  Co  Co114  1  0.00092583  -0.00061048  0.50034431  1
  Co  Co115  1  0.25186893  0.00475214  0.25118062  1
  Co  Co116  1  0.00054510  0.49963128  0.24657174  1
  Co  Co117  1  0.49631479  0.75471692  0.50114916  1
  Co  Co118  1  0.12693984  0.37561974  0.87566304  1
  Co  Co119  1  0.25378852  0.49586244  0.25346585  1
  Co  Co120  1  0.25145317  0.49804507  0.74697837  1
  Co  Co121  1  0.25241855  0.74864233  0.25261823  1
  Co  Co122  1  0.62108533  0.37344519  0.37699707  1
  Co  Co123  1  0.87912216  0.37420809  0.37597422  1
  Co  Co124  1  0.00055891  0.50159046  0.50097809  1
  Co  Co125  1  0.87658191  0.37640278  0.62278204  1
  Co  Co126  1  0.37883500  0.12456986  0.37983849  1
  Co  Co127  1  0.37485445  0.37161403  0.62391835  1
