# generated using pymatgen
data_Fe45Co19
_symmetry_space_group_name_H-M   'P 1'
_cell_length_a   11.41555553
_cell_length_b   11.41316780
_cell_length_c   11.41451181
_cell_angle_alpha   90.00149990
_cell_angle_beta   90.00129017
_cell_angle_gamma   89.99669572
_symmetry_Int_Tables_number   1
_chemical_formula_structural   Fe45Co19
_chemical_formula_sum   'Fe90 Co38'
_cell_volume   1487.16992459
_cell_formula_units_Z   2
loop_
 _symmetry_equiv_pos_site_id
 _symmetry_equiv_pos_as_xyz
  1  'x, y, z'
loop_
 _atom_site_type_symbol
 _atom_site_label
 _atom_site_symmetry_multiplicity
 _atom_site_fract_x
 _atom_site_fract_y
 _atom_site_fract_z
 _atom_site_occupancy
  Fe  Fe0  1  0.12250858  0.87423522  0.62466357  1
  Fe  Fe1  1  -0.00082138  0.24978734  0.50013125  1
  Fe  Fe2  1  0.49952563  0.49775162  0.74757399  1
  Fe  Fe3  1  0.25056407  0.25453390  0.49822118  1
  Fe  Fe4  1  0.62302232  0.38050658  0.37680699  1
  Fe  Fe5  1  0.12557938  0.12609566  0.37556229  1
  Fe  Fe6  1  0.25087150  0.25205627  -0.00019031  1
  Fe  Fe7  1  0.62558588  0.87291216  0.12624435  1
  Fe  Fe8  1  0.24837776  0.25471435  0.25066806  1
  Fe  Fe9  1  0.87750849  0.37996674  0.37476972  1
  Fe  Fe10  1  0.62266399  0.87322371  0.62360524  1
  Fe  Fe11  1  0.50043924  -0.00013102  0.25052091  1
  Fe  Fe12  1  0.00025329  0.00066657  0.25050730  1
  Fe  Fe13  1  0.25090271  -0.00102360  0.50071589  1
  Fe  Fe14  1  0.25088908  -0.00065425  0.74902949  1
  Fe  Fe15  1  0.37424630  0.62315195  0.87570028  1
  Fe  Fe16  1  0.75101819  -0.00271690  0.75006419  1
  Fe  Fe17  1  0.37782796  0.87305780  0.12562250  1
  Fe  Fe18  1  -0.00330907  0.74560185  0.25551591  1
  Fe  Fe19  1  0.37006270  0.62193835  0.62010512  1
  Fe  Fe20  1  0.75022212  0.49932995  0.74725436  1
  Fe  Fe21  1  0.37445322  0.12587598  0.12712812  1
  Fe  Fe22  1  0.87679441  0.87262288  0.62299662  1
  Fe  Fe23  1  0.50193949  0.24884394  0.25264911  1
  Fe  Fe24  1  0.75103338  0.00078373  0.24842401  1
  Fe  Fe25  1  0.62324108  0.12881456  0.62535293  1
  Fe  Fe26  1  0.00549543  0.50461489  0.25116669  1
  Fe  Fe27  1  0.87452071  0.62588419  0.62064904  1
  Fe  Fe28  1  0.12499568  0.12615856  0.12443481  1
  Fe  Fe29  1  0.62573479  0.87428993  0.37483339  1
  Fe  Fe30  1  0.00617318  0.50481208  0.49897955  1
  Fe  Fe31  1  0.12509839  0.87408196  0.87384697  1
  Fe  Fe32  1  0.62635372  0.37741829  0.87410419  1
  Fe  Fe33  1  0.74963598  0.74799007  -0.00144656  1
  Fe  Fe34  1  -0.00219454  0.25086660  -0.00138997  1
  Fe  Fe35  1  0.00158603  0.50263127  0.00072659  1
  Fe  Fe36  1  0.12336936  0.12517154  0.87217696  1
  Fe  Fe37  1  0.87369124  0.12423837  0.37465936  1
  Fe  Fe38  1  0.49925484  0.74620902  0.74973664  1
  Fe  Fe39  1  0.50020754  0.74777349  -0.00080147  1
  Fe  Fe40  1  0.25042528  0.74992842  0.74857705  1
  Fe  Fe41  1  0.87360972  0.62360370  0.87502694  1
  Fe  Fe42  1  0.12480363  0.37389475  0.62547548  1
  Fe  Fe43  1  0.25027039  0.74864953  0.00097002  1
  Fe  Fe44  1  0.37831646  0.87477852  0.62499784  1
  Fe  Fe45  1  0.87593003  0.12349904  0.87282806  1
  Fe  Fe46  1  0.75252538  0.74537056  0.25479784  1
  Fe  Fe47  1  0.62473715  0.87412904  0.87497244  1
  Fe  Fe48  1  -0.00017938  0.24934801  0.24934430  1
  Fe  Fe49  1  0.87441302  0.87302054  0.12541749  1
  Fe  Fe50  1  0.12642672  0.87063165  0.37482556  1
  Fe  Fe51  1  0.62587470  0.12492993  0.87589116  1
  Fe  Fe52  1  0.74908391  0.50107975  0.00232190  1
  Fe  Fe53  1  0.37418235  0.12658089  0.87356320  1
  Fe  Fe54  1  0.24784081  0.50166241  0.00486089  1
  Fe  Fe55  1  0.74939219  -0.00088762  0.50118908  1
  Fe  Fe56  1  0.25092947  -0.00134181  0.00000465  1
  Fe  Fe57  1  0.49987905  0.00252731  0.49807902  1
  Fe  Fe58  1  0.74973914  0.25295512  0.25090494  1
  Fe  Fe59  1  0.49696348  0.50826369  0.25489982  1
  Fe  Fe60  1  0.62601766  0.12473517  0.12403903  1
  Fe  Fe61  1  0.00066448  -0.00095847  0.49913833  1
  Fe  Fe62  1  0.87713941  0.37801221  0.12576082  1
  Fe  Fe63  1  0.12456801  0.37597887  0.87584818  1
  Fe  Fe64  1  0.75180333  0.25150361  0.00140045  1
  Fe  Fe65  1  0.00111974  0.74752233  0.74937421  1
  Fe  Fe66  1  0.49913341  -0.00093954  -0.00056084  1
  Fe  Fe67  1  0.75191430  0.25315579  0.75012760  1
  Fe  Fe68  1  0.62672306  0.62340736  0.62063268  1
  Fe  Fe69  1  0.50090622  0.50128916  0.00020439  1
  Fe  Fe70  1  0.74892001  0.74906143  0.74921920  1
  Fe  Fe71  1  0.49864424  0.25212174  -0.00148526  1
  Fe  Fe72  1  0.62523000  0.62608824  0.12733009  1
  Fe  Fe73  1  0.24917809  -0.00175827  0.24953857  1
  Fe  Fe74  1  0.37412097  0.12657463  0.37434865  1
  Fe  Fe75  1  0.37668685  0.13073422  0.62550295  1
  Fe  Fe76  1  0.49919977  0.00065285  0.75138175  1
  Fe  Fe77  1  0.37571173  0.37777442  0.12787535  1
  Fe  Fe78  1  -0.00009946  0.74721333  -0.00120626  1
  Fe  Fe79  1  0.49974410  0.74472667  0.49565774  1
  Fe  Fe80  1  0.74896980  0.25321150  0.49825611  1
  Fe  Fe81  1  0.62306132  0.37702813  0.12720721  1
  Fe  Fe82  1  0.12271217  0.87259564  0.12596489  1
  Fe  Fe83  1  0.37373921  0.87129474  0.37439392  1
  Fe  Fe84  1  0.87678977  0.37618599  0.62372941  1
  Fe  Fe85  1  0.12411257  0.12696125  0.62689591  1
  Fe  Fe86  1  -0.00301472  -0.00111345  0.00025942  1
  Fe  Fe87  1  0.24981533  0.49726594  0.74818232  1
  Fe  Fe88  1  0.00036298  0.50065396  0.74988577  1
  Fe  Fe89  1  0.87641815  0.12503544  0.62582589  1
  Co  Co90  1  0.75281024  -0.00092754  -0.00011665  1
  Co  Co91  1  0.12845561  0.62436708  0.62361864  1
  Co  Co92  1  0.87413115  0.37950624  0.87654096  1
  Co  Co93  1  0.24581976  0.49692903  0.25006115  1
  Co  Co94  1  0.62487053  0.62272510  0.87298798  1
  Co  Co95  1  0.87434961  0.87791660  0.37566367  1
  Co  Co96  1  0.87466016  0.12600823  0.12673568  1
  Co  Co97  1  0.24931631  0.75498833  0.50601547  1
  Co  Co98  1  0.36391188  0.62679499  0.37751039  1
  Co  Co99  1  0.75036616  0.50022182  0.24764323  1
  Co  Co100  1  0.50182346  0.24997610  0.49601634  1
  Co  Co101  1  0.63070289  0.62075392  0.37863387  1
  Co  Co102  1  0.87188885  0.61832338  0.37926149  1
  Co  Co103  1  -0.00022541  0.74706392  0.49639391  1
  Co  Co104  1  0.37348609  0.37936891  0.87692197  1
  Co  Co105  1  0.37706749  0.37213624  0.62322249  1
  Co  Co106  1  0.12439078  0.62867352  0.12746468  1
  Co  Co107  1  0.37493320  0.62407113  0.12489690  1
  Co  Co108  1  0.24866840  0.49272847  0.49680769  1
  Co  Co109  1  0.62754142  0.12346788  0.37502189  1
  Co  Co110  1  0.12057602  0.37362029  0.37469464  1
  Co  Co111  1  0.87501580  0.87157287  0.87431349  1
  Co  Co112  1  0.62196160  0.37280553  0.62425789  1
  Co  Co113  1  0.87496856  0.62393136  0.12426452  1
  Co  Co114  1  0.24932884  0.25279972  0.75141151  1
  Co  Co115  1  0.49624592  0.50312609  0.49965940  1
  Co  Co116  1  0.50018934  0.74495438  0.25489604  1
  Co  Co117  1  -0.00115590  0.25349549  0.75079655  1
  Co  Co118  1  0.13404522  0.63010939  0.37623249  1
  Co  Co119  1  0.74939639  0.49578710  0.50340424  1
  Co  Co120  1  -0.00041640  -0.00239412  0.74912341  1
  Co  Co121  1  0.75099032  0.75160677  0.49805766  1
  Co  Co122  1  0.25238441  0.75052273  0.24398735  1
  Co  Co123  1  0.37531243  0.87206020  0.87400997  1
  Co  Co124  1  0.49955063  0.25397015  0.75464691  1
  Co  Co125  1  0.37847109  0.37637323  0.37326645  1
  Co  Co126  1  0.12667116  0.62431651  0.87349688  1
  Co  Co127  1  0.12271728  0.37352509  0.12318344  1
