# generated using pymatgen
data_Fe45Co19
_symmetry_space_group_name_H-M   'P 1'
_cell_length_a   11.41543296
_cell_length_b   11.41532011
_cell_length_c   11.41469549
_cell_angle_alpha   90.01036502
_cell_angle_beta   89.99833891
_cell_angle_gamma   90.00028600
_symmetry_Int_Tables_number   1
_chemical_formula_structural   Fe45Co19
_chemical_formula_sum   'Fe90 Co38'
_cell_volume   1487.45832146
_cell_formula_units_Z   2
loop_
 _symmetry_equiv_pos_site_id
 _symmetry_equiv_pos_as_xyz
  1  'x, y, z'
loop_
 _atom_site_type_symbol
 _atom_site_label
 _atom_site_symmetry_multiplicity
 _atom_site_fract_x
 _atom_site_fract_y
 _atom_site_fract_z
 _atom_site_occupancy
  Fe  Fe0  1  -0.00054933  0.00072246  0.49576671  1
  Fe  Fe1  1  0.62733076  0.11963365  0.62708516  1
  Fe  Fe2  1  0.25301883  0.00176981  0.00021511  1
  Fe  Fe3  1  0.37586601  0.12545496  0.62877524  1
  Fe  Fe4  1  0.62390278  0.37574013  0.62480367  1
  Fe  Fe5  1  0.87435851  0.37350016  0.37450957  1
  Fe  Fe6  1  0.12687759  0.12592465  0.12646818  1
  Fe  Fe7  1  0.62568732  0.62893383  0.62539023  1
  Fe  Fe8  1  0.87063321  0.12555344  0.37481229  1
  Fe  Fe9  1  0.25234555  0.75480422  0.25514233  1
  Fe  Fe10  1  -0.00192425  0.75312272  0.74786247  1
  Fe  Fe11  1  0.74808046  0.50158771  0.75038426  1
  Fe  Fe12  1  -0.00143021  -0.00082392  0.75097509  1
  Fe  Fe13  1  0.12586223  0.87576140  0.12633088  1
  Fe  Fe14  1  0.25485777  0.24837734  -0.00115521  1
  Fe  Fe15  1  0.74889910  0.49968588  0.24880676  1
  Fe  Fe16  1  0.49767276  0.50552394  0.50165971  1
  Fe  Fe17  1  0.12578073  0.87543501  0.87616155  1
  Fe  Fe18  1  0.87565384  0.62585229  0.87277454  1
  Fe  Fe19  1  0.12768604  0.62556824  0.12720883  1
  Fe  Fe20  1  0.12465615  0.62528433  0.87452824  1
  Fe  Fe21  1  0.37532546  0.87369609  0.62050146  1
  Fe  Fe22  1  0.50033514  0.50025226  0.25108684  1
  Fe  Fe23  1  0.62619128  0.62860028  0.37514554  1
  Fe  Fe24  1  0.12686290  0.62581831  0.37539070  1
  Fe  Fe25  1  0.37821180  0.37352971  0.12466379  1
  Fe  Fe26  1  0.87247418  0.12550881  0.12529188  1
  Fe  Fe27  1  0.87188610  0.12131117  0.87646477  1
  Fe  Fe28  1  0.25250405  0.25050647  0.49967055  1
  Fe  Fe29  1  0.12393510  0.37508008  0.62384253  1
  Fe  Fe30  1  0.25355785  0.50086070  0.49991125  1
  Fe  Fe31  1  0.62610885  0.37611162  0.12089128  1
  Fe  Fe32  1  -0.00092819  0.24884559  0.74935624  1
  Fe  Fe33  1  0.50071550  0.24828564  0.50159041  1
  Fe  Fe34  1  0.74797549  0.25243796  0.24807700  1
  Fe  Fe35  1  0.12368088  0.37282250  0.12709145  1
  Fe  Fe36  1  0.12714767  0.12504254  0.87424637  1
  Fe  Fe37  1  0.87391057  0.37672396  0.62587322  1
  Fe  Fe38  1  0.75067342  0.75108162  0.00017971  1
  Fe  Fe39  1  0.62221596  0.12430943  0.12419103  1
  Fe  Fe40  1  0.24977797  0.49844590  0.75015195  1
  Fe  Fe41  1  0.12592547  0.12445151  0.62541047  1
  Fe  Fe42  1  0.87504651  0.87612112  0.12547800  1
  Fe  Fe43  1  -0.00146577  0.50084153  0.49891152  1
  Fe  Fe44  1  0.62222445  0.87249265  0.12177284  1
  Fe  Fe45  1  0.12386034  0.62379070  0.62471799  1
  Fe  Fe46  1  -0.00225870  0.24965993  0.00108569  1
  Fe  Fe47  1  0.49627722  -0.00125582  -0.00317594  1
  Fe  Fe48  1  0.87135346  0.12130440  0.62297187  1
  Fe  Fe49  1  0.00130290  0.74984507  0.00071896  1
  Fe  Fe50  1  0.75308100  0.75764616  0.74652130  1
  Fe  Fe51  1  0.74991471  0.50195145  0.50109077  1
  Fe  Fe52  1  0.00094589  0.00021150  0.00086772  1
  Fe  Fe53  1  -0.00076348  0.75025430  0.25029329  1
  Fe  Fe54  1  -0.00025797  0.49868483  0.25001904  1
  Fe  Fe55  1  0.37914490  0.12338179  0.37017836  1
  Fe  Fe56  1  0.49915792  0.50322893  -0.00276086  1
  Fe  Fe57  1  0.25016674  -0.00108755  0.49584815  1
  Fe  Fe58  1  0.87124379  0.62805747  0.37448098  1
  Fe  Fe59  1  0.12563747  0.12747468  0.37382481  1
  Fe  Fe60  1  0.12515895  0.37348893  0.87519948  1
  Fe  Fe61  1  0.12415938  0.87635447  0.62123399  1
  Fe  Fe62  1  0.87395233  0.62358029  0.12445404  1
  Fe  Fe63  1  0.25153054  -0.00120550  0.74994502  1
  Fe  Fe64  1  0.00009456  0.50005687  0.00051426  1
  Fe  Fe65  1  0.74602354  -0.00331726  0.25047762  1
  Fe  Fe66  1  0.87168693  0.37564993  0.87687965  1
  Fe  Fe67  1  0.25305275  0.25082142  0.25115233  1
  Fe  Fe68  1  0.62581947  0.12821653  0.37515382  1
  Fe  Fe69  1  0.50245541  0.00048778  0.49909985  1
  Fe  Fe70  1  0.25235489  0.75034428  0.00133359  1
  Fe  Fe71  1  0.25151343  0.49898939  -0.00062020  1
  Fe  Fe72  1  0.37900807  0.37405102  0.62934267  1
  Fe  Fe73  1  0.62468169  0.86801369  0.37869282  1
  Fe  Fe74  1  0.00114413  0.00045298  0.25156473  1
  Fe  Fe75  1  0.37502974  0.62544429  0.12824092  1
  Fe  Fe76  1  0.74819952  0.24832636  0.74965940  1
  Fe  Fe77  1  -0.00317768  0.74964790  0.50089039  1
  Fe  Fe78  1  0.37670773  0.87827606  0.12890645  1
  Fe  Fe79  1  0.62565530  0.11722702  0.87249320  1
  Fe  Fe80  1  0.62334940  0.62661540  0.12441507  1
  Fe  Fe81  1  0.49980673  0.75497920  0.74932919  1
  Fe  Fe82  1  -0.00118639  0.24929124  0.50010969  1
  Fe  Fe83  1  0.49877493  0.24738870  -0.00343899  1
  Fe  Fe84  1  0.24813184  0.75142589  0.74768939  1
  Fe  Fe85  1  0.62459690  0.37599075  0.87595792  1
  Fe  Fe86  1  0.62278616  0.37515481  0.37777642  1
  Fe  Fe87  1  0.25095712  0.49635256  0.25319794  1
  Fe  Fe88  1  0.37515416  0.62641844  0.87204476  1
  Fe  Fe89  1  0.62439656  0.63016265  0.87436908  1
  Co  Co90  1  0.37260030  0.87310730  0.87438621  1
  Co  Co91  1  0.37452476  0.62625186  0.62993021  1
  Co  Co92  1  0.50312871  0.50288433  0.75029022  1
  Co  Co93  1  0.74681405  -0.00300339  0.49588610  1
  Co  Co94  1  0.25156771  0.74889319  0.49858126  1
  Co  Co95  1  0.74870616  0.75091952  0.24602311  1
  Co  Co96  1  0.37476374  0.62494070  0.37240664  1
  Co  Co97  1  0.49674959  0.74562509  0.50035853  1
  Co  Co98  1  0.62575121  0.87643554  0.87616602  1
  Co  Co99  1  -0.00176761  0.24890224  0.25045539  1
  Co  Co100  1  0.37923228  0.37472194  0.37695980  1
  Co  Co101  1  0.50282110  0.25262206  0.24938857  1
  Co  Co102  1  0.49932966  0.75000062  0.25015465  1
  Co  Co103  1  0.62309411  0.87657584  0.62244528  1
  Co  Co104  1  0.50548679  0.24752529  0.75092151  1
  Co  Co105  1  0.74723295  0.24626415  -0.00116821  1
  Co  Co106  1  0.37823004  0.12291996  0.12969330  1
  Co  Co107  1  0.37474272  0.12583283  0.86996645  1
  Co  Co108  1  0.12465363  0.37399075  0.37644620  1
  Co  Co109  1  0.74894721  -0.00202283  0.00338566  1
  Co  Co110  1  0.75236163  -0.00628206  0.74956495  1
  Co  Co111  1  0.12231614  0.87336730  0.37688007  1
  Co  Co112  1  0.50699555  -0.00306334  0.25239136  1
  Co  Co113  1  0.87534785  0.62211563  0.62785168  1
  Co  Co114  1  0.87234384  0.37533874  0.12319577  1
  Co  Co115  1  0.87666362  0.88116945  0.61974145  1
  Co  Co116  1  0.00061195  0.49792823  0.75233561  1
  Co  Co117  1  0.87324977  0.87347816  0.37380483  1
  Co  Co118  1  0.75334257  0.75013559  0.50502878  1
  Co  Co119  1  0.37808199  0.37488467  0.87171505  1
  Co  Co120  1  0.49649286  0.75020405  0.00024031  1
  Co  Co121  1  0.24786945  0.25131584  0.74933283  1
  Co  Co122  1  0.87586832  0.87609886  0.87907681  1
  Co  Co123  1  0.37973577  0.87750222  0.37674311  1
  Co  Co124  1  0.49651445  -0.00475424  0.74940142  1
  Co  Co125  1  0.24764582  -0.00134864  0.25295047  1
  Co  Co126  1  0.74901555  0.25128796  0.50209456  1
  Co  Co127  1  0.74875098  0.50481094  -0.00146902  1
