# generated using pymatgen
data_Fe45Co19
_symmetry_space_group_name_H-M   'P 1'
_cell_length_a   11.41439724
_cell_length_b   11.41379972
_cell_length_c   11.41600672
_cell_angle_alpha   90.00871776
_cell_angle_beta   89.99955036
_cell_angle_gamma   89.99882845
_symmetry_Int_Tables_number   1
_chemical_formula_structural   Fe45Co19
_chemical_formula_sum   'Fe90 Co38'
_cell_volume   1487.29610486
_cell_formula_units_Z   2
loop_
 _symmetry_equiv_pos_site_id
 _symmetry_equiv_pos_as_xyz
  1  'x, y, z'
loop_
 _atom_site_type_symbol
 _atom_site_label
 _atom_site_symmetry_multiplicity
 _atom_site_fract_x
 _atom_site_fract_y
 _atom_site_fract_z
 _atom_site_occupancy
  Fe  Fe0  1  0.62305501  0.12393467  0.12739770  1
  Fe  Fe1  1  0.50288178  -0.00541772  0.74905606  1
  Fe  Fe2  1  0.12474105  0.12610546  0.87531744  1
  Fe  Fe3  1  0.87486411  0.62373807  0.12422759  1
  Fe  Fe4  1  0.25106879  0.25454138  0.24856801  1
  Fe  Fe5  1  0.87233734  0.37799637  0.62332409  1
  Fe  Fe6  1  0.62752698  0.37675058  0.37779349  1
  Fe  Fe7  1  0.37523719  0.12541977  0.62585175  1
  Fe  Fe8  1  0.75294902  0.50210282  0.75412952  1
  Fe  Fe9  1  0.12340565  0.62439401  0.62548555  1
  Fe  Fe10  1  -0.00340190  0.50023999  0.75241074  1
  Fe  Fe11  1  -0.00065131  0.74954130  0.24787054  1
  Fe  Fe12  1  0.50146456  0.24944200  0.50042000  1
  Fe  Fe13  1  0.37508446  0.87319532  0.62520767  1
  Fe  Fe14  1  0.50073127  -0.00270749  0.49908393  1
  Fe  Fe15  1  0.62477724  0.37707428  0.12269583  1
  Fe  Fe16  1  0.37320089  0.37589111  0.62609402  1
  Fe  Fe17  1  0.24841282  0.00112064  0.49890304  1
  Fe  Fe18  1  0.50213986  0.50291402  0.50104868  1
  Fe  Fe19  1  0.87259860  0.37615220  0.37737022  1
  Fe  Fe20  1  0.37732082  0.86928523  0.87424497  1
  Fe  Fe21  1  0.24829490  0.74821423  0.50223306  1
  Fe  Fe22  1  0.62313229  0.62908851  0.87284700  1
  Fe  Fe23  1  -0.00124350  0.25496277  0.24694535  1
  Fe  Fe24  1  0.87580835  0.12551451  0.12422879  1
  Fe  Fe25  1  -0.00228114  0.50065070  -0.00309814  1
  Fe  Fe26  1  0.75018291  -0.00074843  0.49653424  1
  Fe  Fe27  1  0.00346024  0.74830519  0.00304154  1
  Fe  Fe28  1  0.37224337  0.62039652  0.12440278  1
  Fe  Fe29  1  -0.00202547  0.25111380  0.75085102  1
  Fe  Fe30  1  0.12291523  0.87133459  0.37629413  1
  Fe  Fe31  1  0.87501939  0.12566396  0.37252015  1
  Fe  Fe32  1  0.37535407  0.37382214  0.37631244  1
  Fe  Fe33  1  0.75048907  0.75215914  0.74848280  1
  Fe  Fe34  1  -0.00037151  -0.00381454  0.25017424  1
  Fe  Fe35  1  0.49951869  0.50366405  -0.00277454  1
  Fe  Fe36  1  0.87537260  0.12267340  0.62353501  1
  Fe  Fe37  1  0.37388681  0.37906632  0.87284610  1
  Fe  Fe38  1  0.25031099  0.25315693  0.00128725  1
  Fe  Fe39  1  0.62838798  0.37558064  0.87667941  1
  Fe  Fe40  1  0.37435061  0.87349027  0.12481145  1
  Fe  Fe41  1  0.24940167  -0.00163140  0.75104779  1
  Fe  Fe42  1  0.49961139  0.25109563  -0.00025236  1
  Fe  Fe43  1  0.74705277  0.74994623  0.00367784  1
  Fe  Fe44  1  0.24954123  -0.00154746  0.25044876  1
  Fe  Fe45  1  0.12471159  0.87500685  0.87567961  1
  Fe  Fe46  1  0.75109553  0.74655658  0.49854561  1
  Fe  Fe47  1  0.87496768  0.87266758  0.87849712  1
  Fe  Fe48  1  0.74873409  0.25269520  0.24839210  1
  Fe  Fe49  1  0.50076088  0.25261808  0.74967880  1
  Fe  Fe50  1  0.37540977  0.62471924  0.63085108  1
  Fe  Fe51  1  0.12579165  0.62447439  0.87361859  1
  Fe  Fe52  1  0.25114612  -0.00084999  0.00021596  1
  Fe  Fe53  1  0.87694955  0.12818178  0.87913116  1
  Fe  Fe54  1  0.12531177  0.12535561  0.62703475  1
  Fe  Fe55  1  0.37676881  0.12709221  0.12679304  1
  Fe  Fe56  1  0.37447987  0.87142943  0.37603532  1
  Fe  Fe57  1  0.62577140  0.62659761  0.13057049  1
  Fe  Fe58  1  0.62535754  0.12575055  0.37321197  1
  Fe  Fe59  1  0.00099026  -0.00075610  0.00090695  1
  Fe  Fe60  1  0.37589498  0.62656115  0.37663638  1
  Fe  Fe61  1  0.12101613  0.87685811  0.62285407  1
  Fe  Fe62  1  0.50069990  -0.00346057  0.00107557  1
  Fe  Fe63  1  -0.00021083  0.50225908  0.49794231  1
  Fe  Fe64  1  0.49892545  -0.00304871  0.25116444  1
  Fe  Fe65  1  0.37582625  0.12536110  0.87364138  1
  Fe  Fe66  1  0.12555367  0.12442367  0.12542421  1
  Fe  Fe67  1  0.87088044  0.37737955  0.11895699  1
  Fe  Fe68  1  0.50004705  0.49999456  0.25206723  1
  Fe  Fe69  1  0.62555200  0.12397282  0.62510748  1
  Fe  Fe70  1  0.75220617  -0.00608731  0.24951086  1
  Fe  Fe71  1  0.24794654  0.50081396  0.49838324  1
  Fe  Fe72  1  0.62591896  0.62485453  0.62600225  1
  Fe  Fe73  1  0.24829765  0.74680900  0.24782502  1
  Fe  Fe74  1  -0.00079161  0.75068799  0.74875957  1
  Fe  Fe75  1  0.62389198  0.12317891  0.87377704  1
  Fe  Fe76  1  0.12581857  0.37393158  0.62356412  1
  Fe  Fe77  1  0.75164606  0.24935204  0.75086544  1
  Fe  Fe78  1  0.12531709  0.12869145  0.37253271  1
  Fe  Fe79  1  0.12542695  0.37536517  0.87405446  1
  Fe  Fe80  1  0.12696736  0.38370853  0.12688030  1
  Fe  Fe81  1  0.87401046  0.62428337  0.37322632  1
  Fe  Fe82  1  0.62294505  0.86766528  0.37298161  1
  Fe  Fe83  1  0.37560171  0.12709897  0.37419879  1
  Fe  Fe84  1  0.87759498  0.87624218  0.62045324  1
  Fe  Fe85  1  0.24951703  0.74583918  0.00009644  1
  Fe  Fe86  1  0.75178600  -0.00249514  0.75157578  1
  Fe  Fe87  1  -0.00076924  0.24919161  0.49936099  1
  Fe  Fe88  1  0.74836339  -0.00101682  0.00191254  1
  Fe  Fe89  1  0.62899635  0.37619993  0.62371651  1
  Co  Co90  1  0.75545747  0.75242124  0.24975339  1
  Co  Co91  1  0.74919027  0.50623668  0.49847779  1
  Co  Co92  1  0.74596856  0.24608310  0.00143515  1
  Co  Co93  1  0.25292978  0.50020611  0.25577873  1
  Co  Co94  1  0.87487217  0.62413090  0.62681107  1
  Co  Co95  1  0.87168208  0.37291803  0.87927238  1
  Co  Co96  1  0.25020502  0.24925468  0.49966584  1
  Co  Co97  1  0.75089652  0.24731306  0.49982216  1
  Co  Co98  1  0.87504740  0.63026519  0.87618259  1
  Co  Co99  1  0.74997985  0.49852077  0.24976603  1
  Co  Co100  1  0.25122918  0.50143689  -0.00395053  1
  Co  Co101  1  0.37574810  0.62637739  0.86869357  1
  Co  Co102  1  0.74841778  0.50630947  -0.00204158  1
  Co  Co103  1  0.12636233  0.87532708  0.12534437  1
  Co  Co104  1  0.12454401  0.61865152  0.12699323  1
  Co  Co105  1  0.62865005  0.87462553  0.62075396  1
  Co  Co106  1  0.37663200  0.37809924  0.12503818  1
  Co  Co107  1  0.87646564  0.87412901  0.12098011  1
  Co  Co108  1  0.62530051  0.87327976  0.87800647  1
  Co  Co109  1  0.12417714  0.37533303  0.37507702  1
  Co  Co110  1  -0.00187463  -0.00045915  0.75279641  1
  Co  Co111  1  0.00212119  0.00451977  0.49666902  1
  Co  Co112  1  0.50252775  0.25296506  0.25073204  1
  Co  Co113  1  -0.00492423  0.49925692  0.25124024  1
  Co  Co114  1  0.25033029  0.25026716  0.75107778  1
  Co  Co115  1  0.50009834  0.74776191  0.50327022  1
  Co  Co116  1  0.49882288  0.74650163  0.00249579  1
  Co  Co117  1  -0.00092561  0.74477746  0.50045188  1
  Co  Co118  1  0.50358098  0.49874904  0.75005552  1
  Co  Co119  1  0.24665312  0.50049370  0.74918054  1
  Co  Co120  1  0.62285994  0.87293083  0.12807106  1
  Co  Co121  1  0.62501987  0.62833842  0.37095320  1
  Co  Co122  1  0.87876120  0.87332075  0.37939575  1
  Co  Co123  1  0.12369352  0.62519181  0.37205128  1
  Co  Co124  1  0.50342428  0.75278631  0.74714487  1
  Co  Co125  1  0.00439554  0.25307924  0.00278916  1
  Co  Co126  1  0.24586143  0.75073486  0.74888568  1
  Co  Co127  1  0.49453809  0.74783969  0.24759287  1
