# generated using pymatgen
data_Fe45Co19
_symmetry_space_group_name_H-M   'P 1'
_cell_length_a   11.41541973
_cell_length_b   11.41351170
_cell_length_c   11.41376811
_cell_angle_alpha   90.01021378
_cell_angle_beta   90.00333591
_cell_angle_gamma   90.00009465
_symmetry_Int_Tables_number   1
_chemical_formula_structural   Fe45Co19
_chemical_formula_sum   'Fe90 Co38'
_cell_volume   1487.10012452
_cell_formula_units_Z   2
loop_
 _symmetry_equiv_pos_site_id
 _symmetry_equiv_pos_as_xyz
  1  'x, y, z'
loop_
 _atom_site_type_symbol
 _atom_site_label
 _atom_site_symmetry_multiplicity
 _atom_site_fract_x
 _atom_site_fract_y
 _atom_site_fract_z
 _atom_site_occupancy
  Fe  Fe0  1  0.62248544  0.12551955  0.37742994  1
  Fe  Fe1  1  0.87966538  0.12257550  0.86959565  1
  Fe  Fe2  1  0.12455477  0.37423918  0.12560591  1
  Fe  Fe3  1  0.87593560  0.37579112  0.62423991  1
  Fe  Fe4  1  0.87523678  0.12617596  0.12438638  1
  Fe  Fe5  1  0.50029127  0.74338559  0.74900165  1
  Fe  Fe6  1  -0.00284776  0.50434635  -0.00035059  1
  Fe  Fe7  1  0.62691402  0.12729328  0.12379150  1
  Fe  Fe8  1  0.37821441  0.87344152  0.87395298  1
  Fe  Fe9  1  0.62335693  0.37867827  0.62953095  1
  Fe  Fe10  1  0.62119469  0.13030973  0.87440245  1
  Fe  Fe11  1  0.50174533  0.75088008  0.24856321  1
  Fe  Fe12  1  0.24973511  0.25112853  0.74917091  1
  Fe  Fe13  1  0.37487676  0.12328877  0.62570066  1
  Fe  Fe14  1  0.75211941  0.49590561  0.25226277  1
  Fe  Fe15  1  0.75199064  0.50109772  -0.00368494  1
  Fe  Fe16  1  0.12607343  0.37242013  0.37624759  1
  Fe  Fe17  1  0.75010203  0.75098967  0.25272309  1
  Fe  Fe18  1  0.12449014  0.87330594  0.37638916  1
  Fe  Fe19  1  0.37233267  0.87220470  0.62559702  1
  Fe  Fe20  1  0.37311801  0.37535964  0.37740009  1
  Fe  Fe21  1  0.74867901  0.74806015  0.75012993  1
  Fe  Fe22  1  0.62777054  0.87544586  0.62469999  1
  Fe  Fe23  1  0.24884926  0.50405881  0.25499164  1
  Fe  Fe24  1  0.62886230  0.62427899  0.12451449  1
  Fe  Fe25  1  0.37581245  0.12671013  0.37701392  1
  Fe  Fe26  1  0.00390818  0.50050029  0.50301752  1
  Fe  Fe27  1  0.37370557  0.12410800  0.12410755  1
  Fe  Fe28  1  0.50095560  -0.00124319  0.25009246  1
  Fe  Fe29  1  0.24721084  -0.00257885  0.75152279  1
  Fe  Fe30  1  0.24969707  0.00097355  0.50012876  1
  Fe  Fe31  1  -0.00222211  0.75093385  0.24831584  1
  Fe  Fe32  1  0.74946983  0.00012326  -0.00532836  1
  Fe  Fe33  1  0.37909052  0.37429864  0.87308561  1
  Fe  Fe34  1  0.62928430  0.37170274  0.12097731  1
  Fe  Fe35  1  0.24755343  -0.00085254  -0.00384161  1
  Fe  Fe36  1  0.49946025  0.50250147  0.50279457  1
  Fe  Fe37  1  0.50264666  0.74786468  -0.00029224  1
  Fe  Fe38  1  0.87530852  0.87454946  0.37751745  1
  Fe  Fe39  1  0.86966031  0.62391697  0.62485948  1
  Fe  Fe40  1  0.37420153  0.62482228  0.12449691  1
  Fe  Fe41  1  0.87818883  0.87315508  0.87012926  1
  Fe  Fe42  1  0.24876403  0.74870926  -0.00228217  1
  Fe  Fe43  1  0.74850294  -0.00115653  0.49926555  1
  Fe  Fe44  1  -0.00238191  0.49682627  0.24947120  1
  Fe  Fe45  1  0.75356323  0.25364490  0.25365750  1
  Fe  Fe46  1  0.62736382  0.87629622  0.12331875  1
  Fe  Fe47  1  0.00306382  0.25144534  0.50473888  1
  Fe  Fe48  1  0.24953230  -0.00007135  0.25109906  1
  Fe  Fe49  1  0.25078875  0.74436527  0.49459743  1
  Fe  Fe50  1  0.87441310  0.87611872  0.12324630  1
  Fe  Fe51  1  0.50220892  0.49905882  -0.00202150  1
  Fe  Fe52  1  0.74852547  0.49881029  0.49924365  1
  Fe  Fe53  1  0.87406773  0.12190849  0.62769141  1
  Fe  Fe54  1  0.37599934  0.87397550  0.37476099  1
  Fe  Fe55  1  0.37564647  0.12573826  0.87370518  1
  Fe  Fe56  1  0.50124261  0.00054396  -0.00053961  1
  Fe  Fe57  1  0.37303349  0.87388935  0.12432695  1
  Fe  Fe58  1  0.37153916  0.37942626  0.62414874  1
  Fe  Fe59  1  -0.00184706  0.50259238  0.74911134  1
  Fe  Fe60  1  0.12312049  0.37579461  0.87197021  1
  Fe  Fe61  1  0.37306165  0.37700079  0.12565740  1
  Fe  Fe62  1  0.12984348  0.62599655  0.62756349  1
  Fe  Fe63  1  0.50266205  0.74926974  0.50131634  1
  Fe  Fe64  1  0.12077139  0.86875590  0.87149078  1
  Fe  Fe65  1  0.12431421  0.12541412  0.62897002  1
  Fe  Fe66  1  0.12480165  0.12705572  0.12547760  1
  Fe  Fe67  1  0.62471786  0.62394227  0.37563932  1
  Fe  Fe68  1  0.24881594  0.50101832  -0.00284879  1
  Fe  Fe69  1  -0.00273304  0.75179068  0.50648930  1
  Fe  Fe70  1  0.12541779  0.87326074  0.12507483  1
  Fe  Fe71  1  0.25082079  0.25093834  -0.00081330  1
  Fe  Fe72  1  0.74857930  0.25250704  0.50110210  1
  Fe  Fe73  1  0.12435074  0.12768521  0.37442777  1
  Fe  Fe74  1  0.25320013  0.50523398  0.75324273  1
  Fe  Fe75  1  -0.00044937  0.24994136  -0.00151712  1
  Fe  Fe76  1  0.75184416  0.74949088  -0.00228166  1
  Fe  Fe77  1  0.12444700  0.62593034  0.12555613  1
  Fe  Fe78  1  0.87628034  0.62355173  0.37631318  1
  Fe  Fe79  1  0.87721923  0.12671485  0.37793750  1
  Fe  Fe80  1  0.49969327  0.25054434  0.50423442  1
  Fe  Fe81  1  0.75039819  -0.00019235  0.25226768  1
  Fe  Fe82  1  -0.00004082  0.00008547  0.25048538  1
  Fe  Fe83  1  0.49948303  0.25216726  0.24874110  1
  Fe  Fe84  1  0.00175667  -0.00052128  -0.00231231  1
  Fe  Fe85  1  0.00081837  -0.00345318  0.50552718  1
  Fe  Fe86  1  0.74966124  0.25121990  0.75007700  1
  Fe  Fe87  1  0.50209477  0.49856979  0.24874120  1
  Fe  Fe88  1  0.50326701  0.00005498  0.74808151  1
  Fe  Fe89  1  0.87524344  0.37572450  0.87479499  1
  Co  Co90  1  0.87263695  0.62447549  0.12814694  1
  Co  Co91  1  -0.00142695  0.25298468  0.74795127  1
  Co  Co92  1  0.12381671  0.12774485  0.87209661  1
  Co  Co93  1  0.38183324  0.62442247  0.37372695  1
  Co  Co94  1  0.86748528  0.87868146  0.62875440  1
  Co  Co95  1  0.12096728  0.62655793  0.87314462  1
  Co  Co96  1  0.74968895  0.74961751  0.49857228  1
  Co  Co97  1  0.62669668  0.62208625  0.87399801  1
  Co  Co98  1  0.87579818  0.62862409  0.87138433  1
  Co  Co99  1  0.62240556  0.87197640  0.87419001  1
  Co  Co100  1  0.87878611  0.37604553  0.38088023  1
  Co  Co101  1  0.62254560  0.37422365  0.87334401  1
  Co  Co102  1  0.62419953  0.87641774  0.37631948  1
  Co  Co103  1  0.75159423  0.49766512  0.75182983  1
  Co  Co104  1  -0.00208940  0.74915025  0.74130785  1
  Co  Co105  1  0.49688886  0.50509410  0.75059356  1
  Co  Co106  1  0.49930965  -0.00213295  0.50273696  1
  Co  Co107  1  0.87373789  0.37393457  0.12110127  1
  Co  Co108  1  0.62806544  0.62261299  0.62524600  1
  Co  Co109  1  0.37145723  0.62575285  0.62263141  1
  Co  Co110  1  0.24865979  0.24914237  0.50409028  1
  Co  Co111  1  0.12838834  0.37927729  0.62852827  1
  Co  Co112  1  0.62706891  0.12410206  0.62303155  1
  Co  Co113  1  0.62208698  0.37526009  0.37783496  1
  Co  Co114  1  0.25171324  0.25020416  0.24921177  1
  Co  Co115  1  -0.00274670  0.74687579  0.00254101  1
  Co  Co116  1  -0.00326531  0.25252505  0.24994375  1
  Co  Co117  1  0.24768086  0.50435947  0.49480971  1
  Co  Co118  1  0.75311020  0.24729068  -0.00557929  1
  Co  Co119  1  0.25307937  0.74691169  0.75504992  1
  Co  Co120  1  0.11728540  0.62787772  0.37448310  1
  Co  Co121  1  0.49675764  0.25141385  0.00232880  1
  Co  Co122  1  0.25033659  0.74698073  0.25204336  1
  Co  Co123  1  0.00463849  -0.00513852  0.74574255  1
  Co  Co124  1  0.49946882  0.25028166  0.74524548  1
  Co  Co125  1  0.13266999  0.87007146  0.62411877  1
  Co  Co126  1  0.74454225  0.00162174  0.75484635  1
  Co  Co127  1  0.37696300  0.62572722  0.87993844  1
