# generated using pymatgen
data_Fe45Co19
_symmetry_space_group_name_H-M   'P 1'
_cell_length_a   11.41549689
_cell_length_b   11.41331889
_cell_length_c   11.41415314
_cell_angle_alpha   90.00874586
_cell_angle_beta   90.00214119
_cell_angle_gamma   89.99202550
_symmetry_Int_Tables_number   1
_chemical_formula_structural   Fe45Co19
_chemical_formula_sum   'Fe90 Co38'
_cell_volume   1487.13521237
_cell_formula_units_Z   2
loop_
 _symmetry_equiv_pos_site_id
 _symmetry_equiv_pos_as_xyz
  1  'x, y, z'
loop_
 _atom_site_type_symbol
 _atom_site_label
 _atom_site_symmetry_multiplicity
 _atom_site_fract_x
 _atom_site_fract_y
 _atom_site_fract_z
 _atom_site_occupancy
  Fe  Fe0  1  0.87474454  0.12089423  0.62299158  1
  Fe  Fe1  1  0.12547294  0.12568736  0.62394287  1
  Fe  Fe2  1  0.62450271  0.87646300  0.12931487  1
  Fe  Fe3  1  0.00046677  0.49976238  0.00128905  1
  Fe  Fe4  1  0.00237857  -0.00319085  0.00206340  1
  Fe  Fe5  1  0.74867954  0.75344598  0.50027473  1
  Fe  Fe6  1  0.37214890  0.36932779  0.12524479  1
  Fe  Fe7  1  0.62704172  0.37315708  0.12889319  1
  Fe  Fe8  1  0.87467275  0.37605951  0.87463365  1
  Fe  Fe9  1  0.50282312  0.49664241  0.00147083  1
  Fe  Fe10  1  0.00105799  0.50107457  0.49943744  1
  Fe  Fe11  1  0.00087867  0.75039033  0.24995645  1
  Fe  Fe12  1  0.12608989  0.37620280  0.37350060  1
  Fe  Fe13  1  0.37696370  0.62347141  0.37762132  1
  Fe  Fe14  1  0.87401590  0.37591797  0.37688603  1
  Fe  Fe15  1  0.75246053  0.24637919  0.25139449  1
  Fe  Fe16  1  0.12603786  0.87239727  0.62588977  1
  Fe  Fe17  1  0.87507753  0.87455572  0.37628837  1
  Fe  Fe18  1  0.74972301  0.75343481  0.74782569  1
  Fe  Fe19  1  0.49854817  0.00132014  0.00411300  1
  Fe  Fe20  1  0.62393443  0.62683094  0.12612964  1
  Fe  Fe21  1  0.75013237  0.74939576  0.25106038  1
  Fe  Fe22  1  0.49806460  0.75248558  -0.00039105  1
  Fe  Fe23  1  0.62451731  0.12470598  0.87686576  1
  Fe  Fe24  1  0.12570847  0.37956274  0.62725614  1
  Fe  Fe25  1  0.62281459  0.87559783  0.87309147  1
  Fe  Fe26  1  0.87298320  0.37674838  0.12589882  1
  Fe  Fe27  1  0.25121342  0.25074236  0.74956737  1
  Fe  Fe28  1  -0.00081133  0.74992058  0.74827933  1
  Fe  Fe29  1  0.24803024  0.49861666  0.00114825  1
  Fe  Fe30  1  0.25056704  0.74621976  0.24888132  1
  Fe  Fe31  1  0.49569379  0.74679394  0.75171583  1
  Fe  Fe32  1  0.12591095  0.62313550  0.87345919  1
  Fe  Fe33  1  0.75005880  -0.00217535  0.00110587  1
  Fe  Fe34  1  0.49904439  0.00103223  0.74885464  1
  Fe  Fe35  1  0.87643524  0.12154809  0.87421816  1
  Fe  Fe36  1  0.62418269  0.62484968  0.87515944  1
  Fe  Fe37  1  0.12391492  0.62182286  0.37218656  1
  Fe  Fe38  1  0.74883266  0.50062112  0.00020637  1
  Fe  Fe39  1  0.37653090  0.37801339  0.62366400  1
  Fe  Fe40  1  0.37412022  0.62539425  0.12153953  1
  Fe  Fe41  1  0.50720421  0.49562046  0.49769968  1
  Fe  Fe42  1  0.12813695  0.87337736  0.87322165  1
  Fe  Fe43  1  0.87458655  0.62571280  0.87603742  1
  Fe  Fe44  1  0.25127566  0.00607834  0.24891317  1
  Fe  Fe45  1  0.49944925  0.50151075  0.24986794  1
  Fe  Fe46  1  0.74945807  0.50333244  0.25441230  1
  Fe  Fe47  1  0.24984927  0.25203343  0.50061113  1
  Fe  Fe48  1  0.37592757  0.37646373  0.87529043  1
  Fe  Fe49  1  0.74972444  0.75177965  0.00054469  1
  Fe  Fe50  1  0.62370128  0.62557734  0.62370594  1
  Fe  Fe51  1  0.62589548  0.37538475  0.87177859  1
  Fe  Fe52  1  0.25606043  0.74353090  0.75021241  1
  Fe  Fe53  1  0.62254990  0.87689097  0.37078848  1
  Fe  Fe54  1  -0.00122089  0.24998334  0.25161829  1
  Fe  Fe55  1  0.49950562  0.24548516  0.24840679  1
  Fe  Fe56  1  0.37565506  0.12653531  0.37915617  1
  Fe  Fe57  1  0.49998531  0.75261201  0.49824196  1
  Fe  Fe58  1  0.87547500  0.12381466  0.12396693  1
  Fe  Fe59  1  0.49884307  0.25015813  0.74873454  1
  Fe  Fe60  1  0.37566790  0.37390410  0.37489150  1
  Fe  Fe61  1  0.00063660  -0.00285610  0.50109544  1
  Fe  Fe62  1  0.62520209  0.12268947  0.37413876  1
  Fe  Fe63  1  0.87527975  0.87692224  0.87250246  1
  Fe  Fe64  1  0.12243753  0.12634294  0.37700686  1
  Fe  Fe65  1  0.12734047  0.87564709  0.37324927  1
  Fe  Fe66  1  0.75172328  0.24738292  0.75058477  1
  Fe  Fe67  1  0.37353382  0.87497725  0.37302531  1
  Fe  Fe68  1  0.12381997  0.37824220  0.87003087  1
  Fe  Fe69  1  0.00310970  0.75125333  0.00215180  1
  Fe  Fe70  1  0.87645481  0.62521993  0.12608905  1
  Fe  Fe71  1  -0.00131858  0.24974584  0.74759690  1
  Fe  Fe72  1  0.24805916  0.74572844  0.50114493  1
  Fe  Fe73  1  0.62440827  0.12484788  0.62334099  1
  Fe  Fe74  1  0.37486872  0.12662091  0.87763679  1
  Fe  Fe75  1  0.75055999  0.50162940  0.74827598  1
  Fe  Fe76  1  0.87560119  0.62643791  0.62040044  1
  Fe  Fe77  1  0.12327694  0.12571901  0.87447641  1
  Fe  Fe78  1  0.37202467  0.87460220  0.12610989  1
  Fe  Fe79  1  0.25041536  -0.00027869  0.50085238  1
  Fe  Fe80  1  -0.00147175  -0.00013733  0.24958118  1
  Fe  Fe81  1  0.74838870  0.25019265  0.49862730  1
  Fe  Fe82  1  0.37485068  0.87458016  0.62566321  1
  Fe  Fe83  1  0.87290895  0.37618007  0.62262423  1
  Fe  Fe84  1  0.00124430  0.25221995  0.00031540  1
  Fe  Fe85  1  0.12700566  0.37399441  0.12964157  1
  Fe  Fe86  1  0.74904756  0.25009005  -0.00012198  1
  Fe  Fe87  1  0.49941244  -0.00094688  0.50008227  1
  Fe  Fe88  1  0.25071548  0.00109270  0.74902302  1
  Fe  Fe89  1  0.24844427  0.00114521  0.00154493  1
  Co  Co90  1  0.12358998  0.12751180  0.12581507  1
  Co  Co91  1  0.37152152  0.13095154  0.11992757  1
  Co  Co92  1  0.50409620  0.25215631  0.00053185  1
  Co  Co93  1  0.50063001  0.50120990  0.74999703  1
  Co  Co94  1  0.62682398  0.37307362  0.62782899  1
  Co  Co95  1  0.62534921  0.37116717  0.37039557  1
  Co  Co96  1  -0.00506240  0.50106794  0.74895840  1
  Co  Co97  1  0.00380159  0.75085665  0.49852971  1
  Co  Co98  1  0.24895371  0.74977753  -0.00066110  1
  Co  Co99  1  0.49506081  0.00358669  0.24819213  1
  Co  Co100  1  0.37997784  0.62139034  0.61824647  1
  Co  Co101  1  0.12321153  0.62374382  0.62756199  1
  Co  Co102  1  0.87728465  0.87656837  0.62539907  1
  Co  Co103  1  0.24977512  0.24639049  0.25471765  1
  Co  Co104  1  0.62019915  0.87400999  0.62663558  1
  Co  Co105  1  0.49701290  0.74877132  0.24977355  1
  Co  Co106  1  0.87584148  0.62604913  0.37748946  1
  Co  Co107  1  0.62802062  0.12398895  0.12554791  1
  Co  Co108  1  0.50096687  0.25101024  0.50042222  1
  Co  Co109  1  0.12451887  0.62330709  0.12695028  1
  Co  Co110  1  0.87504654  0.87297189  0.12595238  1
  Co  Co111  1  0.87630603  0.12467471  0.37915361  1
  Co  Co112  1  0.24526289  0.25202997  -0.00393864  1
  Co  Co113  1  0.74614155  0.49955649  0.49771103  1
  Co  Co114  1  0.37413702  0.87783350  0.87479874  1
  Co  Co115  1  0.37636151  0.62072701  0.88127545  1
  Co  Co116  1  0.75343137  0.00039053  0.25093612  1
  Co  Co117  1  0.74721471  -0.00095817  0.74856383  1
  Co  Co118  1  0.74787467  -0.00380654  0.50008430  1
  Co  Co119  1  0.25480947  0.50121296  0.24986152  1
  Co  Co120  1  0.00121216  0.25254159  0.50205558  1
  Co  Co121  1  0.24786230  0.50097638  0.49858395  1
  Co  Co122  1  0.12816640  0.87526089  0.12793372  1
  Co  Co123  1  0.62338195  0.62802383  0.37557308  1
  Co  Co124  1  0.37430071  0.12511433  0.62357151  1
  Co  Co125  1  0.00302642  -0.00023720  0.74809815  1
  Co  Co126  1  0.25478948  0.50434917  0.74880974  1
  Co  Co127  1  -0.00227264  0.49842366  0.25099690  1
