# generated using pymatgen
data_Fe45Co19
_symmetry_space_group_name_H-M   'P 1'
_cell_length_a   11.41479824
_cell_length_b   11.41481016
_cell_length_c   11.41477371
_cell_angle_alpha   90.01320866
_cell_angle_beta   89.99091370
_cell_angle_gamma   90.01295101
_symmetry_Int_Tables_number   1
_chemical_formula_structural   Fe45Co19
_chemical_formula_sum   'Fe90 Co38'
_cell_volume   1487.31929050
_cell_formula_units_Z   2
loop_
 _symmetry_equiv_pos_site_id
 _symmetry_equiv_pos_as_xyz
  1  'x, y, z'
loop_
 _atom_site_type_symbol
 _atom_site_label
 _atom_site_symmetry_multiplicity
 _atom_site_fract_x
 _atom_site_fract_y
 _atom_site_fract_z
 _atom_site_occupancy
  Fe  Fe0  1  0.12368484  0.87494394  0.12904727  1
  Fe  Fe1  1  0.00055018  -0.00020912  0.74808993  1
  Fe  Fe2  1  0.49600407  0.49862130  0.00289962  1
  Fe  Fe3  1  -0.00082087  0.74983875  0.74621550  1
  Fe  Fe4  1  0.74987560  0.25117553  0.75106855  1
  Fe  Fe5  1  -0.00255056  0.75092964  0.00128970  1
  Fe  Fe6  1  0.74958825  0.25253078  -0.00118935  1
  Fe  Fe7  1  0.49776128  0.74378199  0.25410062  1
  Fe  Fe8  1  0.62297368  0.37664738  0.87255451  1
  Fe  Fe9  1  0.25116851  0.00286166  0.25106686  1
  Fe  Fe10  1  0.87312922  0.12389887  0.62286642  1
  Fe  Fe11  1  0.74860649  0.00128488  0.74857947  1
  Fe  Fe12  1  0.61887302  0.62400745  0.62266175  1
  Fe  Fe13  1  0.62426085  0.87353313  0.37341891  1
  Fe  Fe14  1  0.74667227  0.49868637  0.50235406  1
  Fe  Fe15  1  0.50100375  0.75187203  -0.00054097  1
  Fe  Fe16  1  0.12592228  0.12411640  0.12192137  1
  Fe  Fe17  1  0.62643034  0.87137637  0.12720022  1
  Fe  Fe18  1  0.87384970  0.62270613  0.37754089  1
  Fe  Fe19  1  0.87360955  0.12459818  0.12449436  1
  Fe  Fe20  1  0.62206983  0.62381323  0.87483318  1
  Fe  Fe21  1  0.25340686  0.74935043  0.75142622  1
  Fe  Fe22  1  0.49869865  0.25198996  0.49808300  1
  Fe  Fe23  1  0.75050350  0.00053174  0.25068735  1
  Fe  Fe24  1  0.00062127  -0.00179940  0.00001468  1
  Fe  Fe25  1  0.87509536  0.37529967  0.12524693  1
  Fe  Fe26  1  0.87450622  0.62254865  0.87284022  1
  Fe  Fe27  1  0.74965794  0.74654821  0.74766184  1
  Fe  Fe28  1  0.12616894  0.62606834  0.87610973  1
  Fe  Fe29  1  0.12665244  0.12594150  0.37833122  1
  Fe  Fe30  1  0.87460566  0.37565433  0.37403020  1
  Fe  Fe31  1  0.24979755  0.75401548  -0.00066489  1
  Fe  Fe32  1  0.12808486  0.12650887  0.62420249  1
  Fe  Fe33  1  0.74977268  0.75014463  0.50119019  1
  Fe  Fe34  1  0.37555443  0.37199937  0.36805064  1
  Fe  Fe35  1  0.49875598  0.00382069  0.24949163  1
  Fe  Fe36  1  -0.00054375  0.50118432  0.24945710  1
  Fe  Fe37  1  0.12704823  0.37433600  0.62798182  1
  Fe  Fe38  1  0.37604658  0.87400360  0.62497282  1
  Fe  Fe39  1  0.87246484  0.87402518  0.87444770  1
  Fe  Fe40  1  0.00215509  0.24844495  0.24963128  1
  Fe  Fe41  1  0.12682074  0.37402239  0.87419156  1
  Fe  Fe42  1  0.00196194  0.75194860  0.50112042  1
  Fe  Fe43  1  0.00199062  -0.00264934  0.50191438  1
  Fe  Fe44  1  0.25248088  0.25057127  0.00057685  1
  Fe  Fe45  1  0.25415961  0.24627040  0.75278784  1
  Fe  Fe46  1  0.62249428  0.37833936  0.37047430  1
  Fe  Fe47  1  0.62556911  0.12579116  0.12387527  1
  Fe  Fe48  1  0.12431339  0.87511136  0.87205758  1
  Fe  Fe49  1  0.00254518  0.49893587  0.50080210  1
  Fe  Fe50  1  0.37779455  0.62553317  0.62072577  1
  Fe  Fe51  1  0.75027146  0.49971397  -0.00000709  1
  Fe  Fe52  1  -0.00028500  0.25175799  -0.00091022  1
  Fe  Fe53  1  0.87410942  0.37853285  0.62908787  1
  Fe  Fe54  1  0.25180652  0.50218833  0.75050750  1
  Fe  Fe55  1  0.49789272  0.25084981  0.00126419  1
  Fe  Fe56  1  0.74910167  0.25070748  0.25041319  1
  Fe  Fe57  1  0.25117552  0.74768247  0.25318074  1
  Fe  Fe58  1  0.12636806  0.62572448  0.62377108  1
  Fe  Fe59  1  0.87481128  0.12448399  0.37691797  1
  Fe  Fe60  1  0.25210174  0.00287312  0.75183079  1
  Fe  Fe61  1  0.75375645  0.74737909  0.24915962  1
  Fe  Fe62  1  0.62455639  0.87490397  0.87333051  1
  Fe  Fe63  1  0.62449055  0.12709573  0.62329786  1
  Fe  Fe64  1  0.62409103  0.87426058  0.62544491  1
  Fe  Fe65  1  0.25179566  -0.00176956  0.49838381  1
  Fe  Fe66  1  0.25264093  0.49758798  0.00306720  1
  Fe  Fe67  1  0.00088038  0.25260593  0.50116460  1
  Fe  Fe68  1  0.37894835  0.87976213  0.87601737  1
  Fe  Fe69  1  -0.00071459  0.25045353  0.75050745  1
  Fe  Fe70  1  0.12496334  0.62553217  0.12425359  1
  Fe  Fe71  1  0.87629337  0.87744454  0.37566124  1
  Fe  Fe72  1  0.74817951  -0.00243717  0.00092853  1
  Fe  Fe73  1  0.12670834  0.37508100  0.37158575  1
  Fe  Fe74  1  0.87537405  0.12494118  0.87580801  1
  Fe  Fe75  1  0.62585957  0.62450000  0.12600737  1
  Fe  Fe76  1  0.49645308  0.24760205  0.75171489  1
  Fe  Fe77  1  0.62172115  0.37728823  0.12891976  1
  Fe  Fe78  1  0.37638573  0.62447281  0.87761184  1
  Fe  Fe79  1  0.74936605  0.25299718  0.49986553  1
  Fe  Fe80  1  0.49902544  -0.00080356  0.49955206  1
  Fe  Fe81  1  0.62154290  0.12305946  0.87585152  1
  Fe  Fe82  1  0.37561849  0.87495263  0.12666497  1
  Fe  Fe83  1  0.25311741  0.50309400  0.24775625  1
  Fe  Fe84  1  0.62565830  0.12507700  0.37717251  1
  Fe  Fe85  1  0.37669066  0.37442465  0.62648418  1
  Fe  Fe86  1  0.25058636  0.49666199  0.49885733  1
  Fe  Fe87  1  0.00062525  0.49865180  -0.00155448  1
  Fe  Fe88  1  0.24853584  0.75342231  0.49660376  1
  Fe  Fe89  1  -0.00211824  0.74824320  0.25056332  1
  Co  Co90  1  0.37459042  0.12617391  0.62095807  1
  Co  Co91  1  0.37404777  0.62956916  0.12089547  1
  Co  Co92  1  0.74745596  -0.00128813  0.49902332  1
  Co  Co93  1  0.87395429  0.37753419  0.87270389  1
  Co  Co94  1  0.24735360  -0.00337257  0.00006496  1
  Co  Co95  1  0.12920425  0.87474773  0.62741745  1
  Co  Co96  1  0.49823691  0.74977840  0.75098458  1
  Co  Co97  1  0.37358660  0.62439345  0.38137644  1
  Co  Co98  1  0.12520956  0.37641812  0.12521444  1
  Co  Co99  1  0.87555389  0.62235492  0.12350370  1
  Co  Co100  1  0.37671060  0.87512155  0.37290165  1
  Co  Co101  1  0.12391212  0.87573902  0.37189425  1
  Co  Co102  1  0.62748232  0.62385889  0.37595197  1
  Co  Co103  1  0.74500803  0.50188820  0.74820742  1
  Co  Co104  1  0.49981910  0.49583133  0.49718689  1
  Co  Co105  1  0.25062965  0.25474883  0.49924703  1
  Co  Co106  1  0.37700476  0.37097006  0.13127578  1
  Co  Co107  1  0.49980903  0.00154478  0.74597766  1
  Co  Co108  1  0.75045663  0.74815734  0.00004551  1
  Co  Co109  1  0.37383778  0.12810007  0.37581447  1
  Co  Co110  1  0.00038175  0.00397620  0.25015293  1
  Co  Co111  1  0.24608402  0.24620627  0.24789400  1
  Co  Co112  1  0.37837482  0.11974866  0.88135139  1
  Co  Co113  1  0.62180485  0.37275318  0.62795460  1
  Co  Co114  1  0.12447528  0.12616729  0.87540870  1
  Co  Co115  1  0.00453335  0.50087481  0.75097044  1
  Co  Co116  1  0.87486102  0.87720511  0.12547068  1
  Co  Co117  1  0.87693815  0.62189405  0.62406721  1
  Co  Co118  1  0.50411293  -0.00292982  0.00536581  1
  Co  Co119  1  0.50266822  0.24437955  0.24958634  1
  Co  Co120  1  0.50032396  0.75226123  0.49701345  1
  Co  Co121  1  0.37461445  0.37602623  0.87456305  1
  Co  Co122  1  0.37454168  0.12471695  0.12185732  1
  Co  Co123  1  0.49566068  0.50685334  0.25034342  1
  Co  Co124  1  0.49750550  0.50085691  0.74962630  1
  Co  Co125  1  0.87253783  0.87624708  0.62427131  1
  Co  Co126  1  0.75093663  0.50002270  0.24924428  1
  Co  Co127  1  0.12555055  0.62396605  0.37528550  1
