# generated using pymatgen
data_Fe45Co19
_symmetry_space_group_name_H-M   'P 1'
_cell_length_a   11.41517208
_cell_length_b   11.41491892
_cell_length_c   11.41554754
_cell_angle_alpha   89.98996538
_cell_angle_beta   90.00626103
_cell_angle_gamma   89.99441330
_symmetry_Int_Tables_number   1
_chemical_formula_structural   Fe45Co19
_chemical_formula_sum   'Fe90 Co38'
_cell_volume   1487.48306205
_cell_formula_units_Z   2
loop_
 _symmetry_equiv_pos_site_id
 _symmetry_equiv_pos_as_xyz
  1  'x, y, z'
loop_
 _atom_site_type_symbol
 _atom_site_label
 _atom_site_symmetry_multiplicity
 _atom_site_fract_x
 _atom_site_fract_y
 _atom_site_fract_z
 _atom_site_occupancy
  Fe  Fe0  1  0.37502395  0.87384098  0.12531785  1
  Fe  Fe1  1  0.87503979  0.12522255  0.12714705  1
  Fe  Fe2  1  0.25313322  0.74692218  0.25406810  1
  Fe  Fe3  1  0.74427996  0.49906532  -0.00032414  1
  Fe  Fe4  1  0.12729268  0.87766698  0.87467994  1
  Fe  Fe5  1  0.87050352  0.87799184  0.37653818  1
  Fe  Fe6  1  -0.00157896  0.25303156  0.25145000  1
  Fe  Fe7  1  0.25000027  0.00059141  0.24812811  1
  Fe  Fe8  1  0.12436258  0.12566975  0.37363782  1
  Fe  Fe9  1  0.74752692  0.25007831  0.00011337  1
  Fe  Fe10  1  0.74899213  0.00001782  0.00180669  1
  Fe  Fe11  1  0.62186904  0.62823802  0.62696000  1
  Fe  Fe12  1  0.62254103  0.12264165  0.62587239  1
  Fe  Fe13  1  0.12744350  0.37581857  0.37583921  1
  Fe  Fe14  1  0.75116212  0.24970724  0.74946803  1
  Fe  Fe15  1  0.25091659  0.75072054  -0.00018865  1
  Fe  Fe16  1  0.12401274  0.62683959  0.62530200  1
  Fe  Fe17  1  0.74876068  0.25035466  0.25238238  1
  Fe  Fe18  1  0.00035025  -0.00179372  0.25012475  1
  Fe  Fe19  1  0.62058257  0.62715539  0.12471550  1
  Fe  Fe20  1  0.00027585  0.00121303  0.49979688  1
  Fe  Fe21  1  0.25058885  0.50457207  0.50000735  1
  Fe  Fe22  1  0.62612934  0.37373541  0.62341487  1
  Fe  Fe23  1  0.12597652  0.37134244  0.62529041  1
  Fe  Fe24  1  0.75376343  -0.00337691  0.74696425  1
  Fe  Fe25  1  0.75165487  0.75292316  0.74951877  1
  Fe  Fe26  1  0.87890387  0.12819093  0.62410779  1
  Fe  Fe27  1  0.62844111  0.11867088  0.37628764  1
  Fe  Fe28  1  0.87705206  0.62585348  0.62583615  1
  Fe  Fe29  1  0.62509716  0.87407790  0.87524562  1
  Fe  Fe30  1  0.62532759  0.12357667  0.87192144  1
  Fe  Fe31  1  0.00349679  -0.00198644  0.00167690  1
  Fe  Fe32  1  0.87670055  0.12230962  0.87446459  1
  Fe  Fe33  1  0.00163143  0.75058730  0.00042068  1
  Fe  Fe34  1  0.25402319  0.74944917  0.74828790  1
  Fe  Fe35  1  0.37423010  0.12398116  0.87393721  1
  Fe  Fe36  1  0.00017532  0.75167271  0.25077249  1
  Fe  Fe37  1  0.37549303  0.37686045  0.87686613  1
  Fe  Fe38  1  0.12451374  0.12507684  0.87228843  1
  Fe  Fe39  1  0.49591580  0.75080878  0.49608117  1
  Fe  Fe40  1  0.50181775  0.50187322  0.75350879  1
  Fe  Fe41  1  0.00084467  0.25319985  -0.00028531  1
  Fe  Fe42  1  0.50116015  0.50071245  0.50023588  1
  Fe  Fe43  1  0.75060438  0.74677652  0.50041237  1
  Fe  Fe44  1  0.50229304  0.25077453  0.25272369  1
  Fe  Fe45  1  0.87403462  0.62508266  0.87522148  1
  Fe  Fe46  1  0.87540796  0.87559877  0.12412644  1
  Fe  Fe47  1  0.12490514  0.62582766  0.12805394  1
  Fe  Fe48  1  0.50250508  -0.00719154  0.25340736  1
  Fe  Fe49  1  0.25021603  0.49928687  0.74834765  1
  Fe  Fe50  1  0.49775265  0.00037885  -0.00148864  1
  Fe  Fe51  1  0.87332603  0.37622407  0.87613923  1
  Fe  Fe52  1  -0.00052771  0.75301541  0.75295392  1
  Fe  Fe53  1  0.50003013  0.24567637  0.49852049  1
  Fe  Fe54  1  0.25086565  0.25044769  0.24947221  1
  Fe  Fe55  1  0.37590752  0.37424352  0.37572945  1
  Fe  Fe56  1  0.12672227  0.87410991  0.62168558  1
  Fe  Fe57  1  0.49814486  0.25077174  0.75038023  1
  Fe  Fe58  1  0.49838830  0.49811370  0.24585992  1
  Fe  Fe59  1  0.00123480  0.49849101  0.00233681  1
  Fe  Fe60  1  0.74505037  0.75431302  0.24843131  1
  Fe  Fe61  1  0.74802506  0.49831815  0.25066193  1
  Fe  Fe62  1  0.87105374  0.37409875  0.37980686  1
  Fe  Fe63  1  0.24931737  0.25000946  -0.00004414  1
  Fe  Fe64  1  0.00112124  0.74874318  0.49664612  1
  Fe  Fe65  1  0.62333657  0.87550211  0.62067941  1
  Fe  Fe66  1  0.00072006  0.50040223  0.49949146  1
  Fe  Fe67  1  0.49626919  0.74796443  -0.00481634  1
  Fe  Fe68  1  0.25179861  0.49974373  0.00405593  1
  Fe  Fe69  1  -0.00114830  0.49728379  0.24988985  1
  Fe  Fe70  1  0.37590439  0.37462068  0.62387300  1
  Fe  Fe71  1  0.25303196  0.24536158  0.50030340  1
  Fe  Fe72  1  0.74793469  0.50136388  0.74884243  1
  Fe  Fe73  1  0.62231642  0.62486718  0.37337609  1
  Fe  Fe74  1  0.37270841  0.87688088  0.61899665  1
  Fe  Fe75  1  0.12293647  0.12878016  0.62887958  1
  Fe  Fe76  1  0.37699975  0.12545800  0.12698286  1
  Fe  Fe77  1  0.87273432  0.37378602  0.62065138  1
  Fe  Fe78  1  0.49793297  -0.00387996  0.75005073  1
  Fe  Fe79  1  0.50222693  0.25136403  -0.00072790  1
  Fe  Fe80  1  0.75020807  0.75031150  0.00063935  1
  Fe  Fe81  1  0.12706538  0.62379609  0.87448850  1
  Fe  Fe82  1  0.87385887  0.62432640  0.12577671  1
  Fe  Fe83  1  0.12423801  0.12647650  0.12561884  1
  Fe  Fe84  1  0.13003161  0.87512109  0.37752889  1
  Fe  Fe85  1  0.62381376  0.12389480  0.12615780  1
  Fe  Fe86  1  0.25312821  0.50069375  0.24832565  1
  Fe  Fe87  1  0.25108337  0.00143420  0.74811283  1
  Fe  Fe88  1  0.00030065  0.49731131  0.74992849  1
  Fe  Fe89  1  0.87441981  0.62462398  0.37344842  1
  Co  Co90  1  0.37771227  0.62353512  0.62631811  1
  Co  Co91  1  0.37747477  0.12439849  0.62798503  1
  Co  Co92  1  0.37678886  0.37124419  0.12445927  1
  Co  Co93  1  0.37764080  0.62885851  0.12542194  1
  Co  Co94  1  0.25189207  0.74267104  0.49855679  1
  Co  Co95  1  0.74691757  -0.00403120  0.24531293  1
  Co  Co96  1  0.36866104  0.87770603  0.37784358  1
  Co  Co97  1  0.62032509  0.87354829  0.11848497  1
  Co  Co98  1  0.37552848  0.12335057  0.37025839  1
  Co  Co99  1  0.50233952  0.50002193  -0.00067271  1
  Co  Co100  1  0.74814694  0.50473533  0.50104184  1
  Co  Co101  1  -0.00114035  -0.00272161  0.74829221  1
  Co  Co102  1  0.49569214  0.75334398  0.75024523  1
  Co  Co103  1  0.12573864  0.37467085  0.12681740  1
  Co  Co104  1  0.62381564  0.37693201  0.37717414  1
  Co  Co105  1  0.25333668  0.25126591  0.75108762  1
  Co  Co106  1  0.62534553  0.62983837  0.87353613  1
  Co  Co107  1  0.12804341  0.87276792  0.12753098  1
  Co  Co108  1  0.62997394  0.87767970  0.38277200  1
  Co  Co109  1  0.24896537  0.00829182  0.50147597  1
  Co  Co110  1  0.87795773  0.87141887  0.62107494  1
  Co  Co111  1  0.37923116  0.62193941  0.37370300  1
  Co  Co112  1  0.87497839  0.87630271  0.87845966  1
  Co  Co113  1  0.87376853  0.12271473  0.37303334  1
  Co  Co114  1  0.00164804  0.24997041  0.49752210  1
  Co  Co115  1  0.74591670  0.24600034  0.49930306  1
  Co  Co116  1  0.50112917  0.75657391  0.25516609  1
  Co  Co117  1  0.75423329  0.00302120  0.50597634  1
  Co  Co118  1  0.49658640  0.00254322  0.49698965  1
  Co  Co119  1  0.37232215  0.87711060  0.87538577  1
  Co  Co120  1  0.12692613  0.37609201  0.87506194  1
  Co  Co121  1  0.62486814  0.37365813  0.12621363  1
  Co  Co122  1  0.25000616  0.00186387  0.00259005  1
  Co  Co123  1  0.12353012  0.62332298  0.37252568  1
  Co  Co124  1  -0.00201110  0.25450447  0.75271640  1
  Co  Co125  1  0.62531564  0.37249442  0.87239039  1
  Co  Co126  1  0.87181840  0.37437187  0.12443975  1
  Co  Co127  1  0.37292008  0.62228615  0.87388359  1
