# generated using pymatgen
data_Fe45Co19
_symmetry_space_group_name_H-M   'P 1'
_cell_length_a   11.41420031
_cell_length_b   11.41443999
_cell_length_c   11.41529087
_cell_angle_alpha   90.00087482
_cell_angle_beta   89.99502531
_cell_angle_gamma   89.99844512
_symmetry_Int_Tables_number   1
_chemical_formula_structural   Fe45Co19
_chemical_formula_sum   'Fe90 Co38'
_cell_volume   1487.26062185
_cell_formula_units_Z   2
loop_
 _symmetry_equiv_pos_site_id
 _symmetry_equiv_pos_as_xyz
  1  'x, y, z'
loop_
 _atom_site_type_symbol
 _atom_site_label
 _atom_site_symmetry_multiplicity
 _atom_site_fract_x
 _atom_site_fract_y
 _atom_site_fract_z
 _atom_site_occupancy
  Fe  Fe0  1  -0.00007419  0.49743949  0.74886632  1
  Fe  Fe1  1  0.87314274  0.62633065  0.37514897  1
  Fe  Fe2  1  0.62312517  0.12490621  0.62777241  1
  Fe  Fe3  1  0.12544029  0.12427651  0.37305626  1
  Fe  Fe4  1  0.74555783  0.24654228  -0.00266899  1
  Fe  Fe5  1  0.12526845  0.12544974  0.62727067  1
  Fe  Fe6  1  0.50209317  0.74949705  0.50175184  1
  Fe  Fe7  1  0.62670950  0.62586716  0.87107840  1
  Fe  Fe8  1  0.62530540  0.87702935  0.12453209  1
  Fe  Fe9  1  0.25266760  0.49953300  0.25154518  1
  Fe  Fe10  1  0.74701152  0.00418595  -0.00181435  1
  Fe  Fe11  1  0.87295027  0.62509742  0.12294329  1
  Fe  Fe12  1  0.75037172  0.50058759  -0.00309362  1
  Fe  Fe13  1  0.25266328  -0.00013911  0.75069520  1
  Fe  Fe14  1  0.49920704  0.50073050  0.49920805  1
  Fe  Fe15  1  0.12538687  0.62488950  0.62558324  1
  Fe  Fe16  1  -0.00114113  0.50102053  0.50074284  1
  Fe  Fe17  1  0.75201457  0.25251370  0.25024595  1
  Fe  Fe18  1  0.87158985  0.62675980  0.62605027  1
  Fe  Fe19  1  0.62444127  0.37540282  0.37419177  1
  Fe  Fe20  1  0.49865096  0.50031950  -0.00142909  1
  Fe  Fe21  1  0.62582171  0.87341719  0.62852375  1
  Fe  Fe22  1  0.24700157  0.25201633  -0.00140807  1
  Fe  Fe23  1  0.75029034  -0.00129365  0.50150780  1
  Fe  Fe24  1  0.24731880  0.25331458  0.74966136  1
  Fe  Fe25  1  0.37296614  0.87030764  0.37644679  1
  Fe  Fe26  1  0.87408094  0.12518051  0.12383319  1
  Fe  Fe27  1  0.74922091  0.24770253  0.75274942  1
  Fe  Fe28  1  0.62518753  0.37631770  0.62701364  1
  Fe  Fe29  1  0.24938586  0.74848950  -0.00014446  1
  Fe  Fe30  1  0.62433264  0.87715117  0.37384992  1
  Fe  Fe31  1  0.49827256  0.50016354  0.25130005  1
  Fe  Fe32  1  0.37704222  0.87268767  0.87623249  1
  Fe  Fe33  1  0.62224690  0.37364434  0.87408089  1
  Fe  Fe34  1  0.37557489  0.62644489  0.12420816  1
  Fe  Fe35  1  0.87380570  0.87488086  0.12189423  1
  Fe  Fe36  1  0.12639085  0.87600831  0.87509281  1
  Fe  Fe37  1  0.00089638  0.49813890  0.00103985  1
  Fe  Fe38  1  0.37409955  0.12683575  0.37483332  1
  Fe  Fe39  1  0.25122695  -0.00084233  0.50172762  1
  Fe  Fe40  1  0.50206627  0.74815805  -0.00125572  1
  Fe  Fe41  1  0.00112927  0.75084346  0.24869480  1
  Fe  Fe42  1  -0.00216644  0.74925161  0.75151593  1
  Fe  Fe43  1  0.00081580  -0.00093811  0.50070948  1
  Fe  Fe44  1  0.12314617  0.37646622  0.37567624  1
  Fe  Fe45  1  0.49691684  0.00075011  0.50238992  1
  Fe  Fe46  1  0.12736817  0.62020699  0.87478043  1
  Fe  Fe47  1  0.87401212  0.37368878  0.62516672  1
  Fe  Fe48  1  0.37359671  0.37681818  0.87547491  1
  Fe  Fe49  1  0.24902828  0.25074706  0.49889565  1
  Fe  Fe50  1  0.87576294  0.12481059  0.62721038  1
  Fe  Fe51  1  0.87554725  0.87282854  0.37805060  1
  Fe  Fe52  1  0.87703241  0.37276524  0.87562469  1
  Fe  Fe53  1  0.49688618  0.00064197  0.74786115  1
  Fe  Fe54  1  -0.00128805  0.00107563  0.75129449  1
  Fe  Fe55  1  0.74942768  0.75146463  0.24941418  1
  Fe  Fe56  1  0.62683453  0.37641097  0.12475595  1
  Fe  Fe57  1  0.00027930  0.24995993  0.50131453  1
  Fe  Fe58  1  -0.00499533  0.49636635  0.24861496  1
  Fe  Fe59  1  0.62563744  0.62441850  0.37444698  1
  Fe  Fe60  1  0.12530298  0.62253388  0.12539624  1
  Fe  Fe61  1  0.49412299  0.00075962  0.24640702  1
  Fe  Fe62  1  0.87471762  0.12464876  0.37481168  1
  Fe  Fe63  1  0.12919888  0.87786730  0.12364564  1
  Fe  Fe64  1  0.37701824  0.12913347  0.87458109  1
  Fe  Fe65  1  -0.00087812  0.25252411  0.24823918  1
  Fe  Fe66  1  0.25260726  0.50123526  0.49913311  1
  Fe  Fe67  1  0.49745982  0.00491574  0.00373007  1
  Fe  Fe68  1  0.12401193  0.87365452  0.62580210  1
  Fe  Fe69  1  0.12724493  0.87159694  0.37638030  1
  Fe  Fe70  1  0.25177701  0.74939411  0.75034571  1
  Fe  Fe71  1  0.49842145  0.50080710  0.75041703  1
  Fe  Fe72  1  0.37772652  0.62777036  0.62582234  1
  Fe  Fe73  1  -0.00020906  -0.00166005  0.25029230  1
  Fe  Fe74  1  0.74884580  0.50021669  0.49973002  1
  Fe  Fe75  1  0.00103624  0.74942978  -0.00121738  1
  Fe  Fe76  1  0.12633272  0.62616798  0.37415579  1
  Fe  Fe77  1  0.37353366  0.37330720  0.12561747  1
  Fe  Fe78  1  0.62561972  0.12246779  0.37196097  1
  Fe  Fe79  1  0.00525868  0.24977578  -0.00062803  1
  Fe  Fe80  1  0.62748153  0.62322438  0.12552724  1
  Fe  Fe81  1  0.62490354  0.87656140  0.87383193  1
  Fe  Fe82  1  0.50083618  0.24916375  0.50074201  1
  Fe  Fe83  1  0.49955410  0.24904494  0.24767176  1
  Fe  Fe84  1  0.87278235  0.87613833  0.87558956  1
  Fe  Fe85  1  0.74835302  0.24903547  0.49965956  1
  Fe  Fe86  1  0.37492753  0.37393336  0.62333609  1
  Fe  Fe87  1  0.13052738  0.12240674  0.12673038  1
  Fe  Fe88  1  0.00249334  0.00200391  -0.00143315  1
  Fe  Fe89  1  0.49955304  0.75051373  0.24873256  1
  Co  Co90  1  0.00076754  0.74805426  0.50060654  1
  Co  Co91  1  0.37693190  0.37264442  0.37553335  1
  Co  Co92  1  0.25326570  0.00102985  -0.00406214  1
  Co  Co93  1  0.24935305  0.74876480  0.50371944  1
  Co  Co94  1  0.49875403  0.25305590  0.74812665  1
  Co  Co95  1  0.74881243  0.74915986  -0.00204756  1
  Co  Co96  1  0.37537663  0.87225797  0.62537891  1
  Co  Co97  1  0.25157370  0.49976245  0.00319524  1
  Co  Co98  1  0.75266183  0.49799579  0.25058436  1
  Co  Co99  1  0.24937635  0.74948767  0.24640298  1
  Co  Co100  1  0.36846770  0.12843930  0.12499342  1
  Co  Co101  1  0.87649692  0.87443321  0.62531088  1
  Co  Co102  1  0.50066144  0.74824155  0.75163082  1
  Co  Co103  1  0.25184472  0.50021341  0.74576433  1
  Co  Co104  1  0.62678161  0.12408358  0.12916873  1
  Co  Co105  1  0.62520681  0.62415087  0.62702807  1
  Co  Co106  1  0.12523004  0.37564363  0.62198851  1
  Co  Co107  1  0.25348755  -0.00305234  0.25231184  1
  Co  Co108  1  0.37338408  0.12804051  0.62562401  1
  Co  Co109  1  0.75109400  0.49886470  0.75234696  1
  Co  Co110  1  0.87266848  0.37326835  0.11893070  1
  Co  Co111  1  0.37252495  0.62469866  0.87540708  1
  Co  Co112  1  0.12650429  0.37662875  0.12700593  1
  Co  Co113  1  0.87761803  0.12575130  0.87594602  1
  Co  Co114  1  0.12569668  0.38056308  0.87392298  1
  Co  Co115  1  0.87542086  0.37432382  0.37885125  1
  Co  Co116  1  0.00258545  0.25207667  0.75024238  1
  Co  Co117  1  0.37528067  0.62954368  0.37500383  1
  Co  Co118  1  0.87734932  0.62335598  0.87579765  1
  Co  Co119  1  0.75025928  0.00225829  0.75061243  1
  Co  Co120  1  0.24813050  0.25228552  0.25286090  1
  Co  Co121  1  0.74755901  0.75120819  0.50103554  1
  Co  Co122  1  0.61772184  0.12461701  0.87200708  1
  Co  Co123  1  0.12568774  0.12375959  0.87257319  1
  Co  Co124  1  0.50064573  0.25019295  0.00363142  1
  Co  Co125  1  0.75193771  0.75036681  0.75143208  1
  Co  Co126  1  0.37429447  0.87199775  0.12123360  1
  Co  Co127  1  0.75344357  -0.00227991  0.25013427  1
