# generated using pymatgen
data_Fe45Co19
_symmetry_space_group_name_H-M   'P 1'
_cell_length_a   11.41464941
_cell_length_b   11.41418717
_cell_length_c   11.41466198
_cell_angle_alpha   90.00713509
_cell_angle_beta   89.99650978
_cell_angle_gamma   89.99090938
_symmetry_Int_Tables_number   1
_chemical_formula_structural   Fe45Co19
_chemical_formula_sum   'Fe90 Co38'
_cell_volume   1487.20423146
_cell_formula_units_Z   2
loop_
 _symmetry_equiv_pos_site_id
 _symmetry_equiv_pos_as_xyz
  1  'x, y, z'
loop_
 _atom_site_type_symbol
 _atom_site_label
 _atom_site_symmetry_multiplicity
 _atom_site_fract_x
 _atom_site_fract_y
 _atom_site_fract_z
 _atom_site_occupancy
  Fe  Fe0  1  0.87800015  0.62913725  0.37441195  1
  Fe  Fe1  1  0.24875353  0.49793429  0.25273222  1
  Fe  Fe2  1  -0.00017945  0.50066143  0.24922792  1
  Fe  Fe3  1  0.37513112  0.62652454  0.37206429  1
  Fe  Fe4  1  -0.00044987  -0.00383869  0.24819559  1
  Fe  Fe5  1  0.12080266  0.37822721  0.87689287  1
  Fe  Fe6  1  0.75101961  0.50093297  0.25245985  1
  Fe  Fe7  1  0.37634787  0.37492255  0.87556945  1
  Fe  Fe8  1  0.87469148  0.37645245  0.62564509  1
  Fe  Fe9  1  -0.00039010  -0.00272644  0.74933817  1
  Fe  Fe10  1  0.24756809  0.50284900  0.75358237  1
  Fe  Fe11  1  0.75033673  0.50141567  0.49840204  1
  Fe  Fe12  1  0.12565940  0.12344612  0.62567786  1
  Fe  Fe13  1  0.88137229  0.62588927  0.87217509  1
  Fe  Fe14  1  0.50263304  0.25038820  0.00342075  1
  Fe  Fe15  1  0.50228873  0.25011792  0.74779959  1
  Fe  Fe16  1  0.62232117  0.12429761  0.37838536  1
  Fe  Fe17  1  0.24951875  0.24887436  -0.00125861  1
  Fe  Fe18  1  0.87319286  0.37253942  0.12744976  1
  Fe  Fe19  1  0.87542456  0.12345467  0.62624217  1
  Fe  Fe20  1  0.75320212  -0.00249087  -0.00204114  1
  Fe  Fe21  1  0.74997958  -0.00138394  0.25184208  1
  Fe  Fe22  1  0.37399720  0.87145200  0.87521966  1
  Fe  Fe23  1  0.87666040  0.12763466  0.37269083  1
  Fe  Fe24  1  0.62706998  0.62433016  0.12523783  1
  Fe  Fe25  1  0.75372258  0.50252556  -0.00149830  1
  Fe  Fe26  1  0.62538237  0.12410210  0.87534323  1
  Fe  Fe27  1  0.62363345  0.37553667  0.37428143  1
  Fe  Fe28  1  0.50032333  0.50052147  0.24893115  1
  Fe  Fe29  1  0.62868268  0.87409644  0.12321020  1
  Fe  Fe30  1  0.37239810  0.12172264  0.12603286  1
  Fe  Fe31  1  0.37852916  0.12688768  0.37524943  1
  Fe  Fe32  1  0.00015813  0.25267235  0.75007580  1
  Fe  Fe33  1  0.00022542  0.24933881  0.50103801  1
  Fe  Fe34  1  0.25129815  0.00121042  0.49707084  1
  Fe  Fe35  1  0.37444388  0.37698445  0.12458566  1
  Fe  Fe36  1  0.74997590  -0.00161066  0.75051957  1
  Fe  Fe37  1  0.37488562  0.62721698  0.87440736  1
  Fe  Fe38  1  0.37331663  0.62502510  0.62529677  1
  Fe  Fe39  1  0.12336656  0.12406882  0.87575935  1
  Fe  Fe40  1  0.37406727  0.12716437  0.62475692  1
  Fe  Fe41  1  0.50045234  -0.00036538  0.74797262  1
  Fe  Fe42  1  0.50308227  0.75102814  0.24944963  1
  Fe  Fe43  1  0.50137537  -0.00200231  0.25058473  1
  Fe  Fe44  1  0.12475098  0.37611755  0.12427267  1
  Fe  Fe45  1  0.49832822  -0.00005251  -0.00008274  1
  Fe  Fe46  1  0.62554020  0.37835930  0.62626757  1
  Fe  Fe47  1  0.00442822  0.74899378  0.74030072  1
  Fe  Fe48  1  -0.00100246  0.50233871  0.50097556  1
  Fe  Fe49  1  0.24837489  0.75421840  0.24619363  1
  Fe  Fe50  1  0.62277099  0.62534464  0.87423825  1
  Fe  Fe51  1  0.87370551  0.12442274  0.12576233  1
  Fe  Fe52  1  -0.00126875  0.25001127  0.00155056  1
  Fe  Fe53  1  0.74893640  0.24999248  0.49938954  1
  Fe  Fe54  1  0.37207357  0.87418975  0.62549179  1
  Fe  Fe55  1  0.12577887  0.62500116  0.12426700  1
  Fe  Fe56  1  0.24801564  0.25132050  0.25157451  1
  Fe  Fe57  1  0.50071373  0.74914129  0.74726024  1
  Fe  Fe58  1  0.87770105  0.37185831  0.37224860  1
  Fe  Fe59  1  0.50447215  0.25021996  0.24562457  1
  Fe  Fe60  1  0.62445610  0.37765858  0.87658975  1
  Fe  Fe61  1  0.24987947  0.25235357  0.49645929  1
  Fe  Fe62  1  0.74787091  0.25063111  0.00170618  1
  Fe  Fe63  1  -0.00042613  0.75267074  0.00527193  1
  Fe  Fe64  1  0.62488367  0.87230593  0.87615477  1
  Fe  Fe65  1  0.87482558  0.12686325  0.87478891  1
  Fe  Fe66  1  0.25045445  0.50432216  -0.00138141  1
  Fe  Fe67  1  0.62758854  0.87453781  0.62419094  1
  Fe  Fe68  1  0.25082851  -0.00021321  0.75237012  1
  Fe  Fe69  1  0.12648389  0.11878845  0.12325325  1
  Fe  Fe70  1  0.12254988  0.12513080  0.37408573  1
  Fe  Fe71  1  0.87592957  0.87078335  0.87300973  1
  Fe  Fe72  1  0.25228959  0.49735418  0.49475417  1
  Fe  Fe73  1  0.49846410  0.49996259  0.50035253  1
  Fe  Fe74  1  0.12393428  0.62659598  0.37529790  1
  Fe  Fe75  1  0.74917730  0.25001747  0.74956192  1
  Fe  Fe76  1  0.12682048  0.87197866  0.87768010  1
  Fe  Fe77  1  0.50243638  0.74947727  0.49943597  1
  Fe  Fe78  1  0.49684125  0.74790266  0.00462744  1
  Fe  Fe79  1  0.74806131  0.74710143  0.49890362  1
  Fe  Fe80  1  0.37665836  0.87419072  0.37464438  1
  Fe  Fe81  1  0.12635378  0.37717631  0.62397770  1
  Fe  Fe82  1  0.87353324  0.62962777  0.12860236  1
  Fe  Fe83  1  0.75199397  0.50290962  0.75134511  1
  Fe  Fe84  1  0.24827392  0.75031896  0.50141867  1
  Fe  Fe85  1  0.37621334  0.12746308  0.87376496  1
  Fe  Fe86  1  0.12203487  0.87398880  0.37789353  1
  Fe  Fe87  1  0.75179844  0.00058367  0.49936757  1
  Fe  Fe88  1  0.87736422  0.87056846  0.37626228  1
  Fe  Fe89  1  0.37313408  0.37445382  0.62740706  1
  Co  Co90  1  0.00353738  0.75308634  0.24634219  1
  Co  Co91  1  0.75173333  0.74666741  -0.00311283  1
  Co  Co92  1  0.24600691  0.74776685  0.74906265  1
  Co  Co93  1  0.62629782  0.12252832  0.62365421  1
  Co  Co94  1  0.37356035  0.62306126  0.13030114  1
  Co  Co95  1  0.62294285  0.62201945  0.37509170  1
  Co  Co96  1  0.49798829  0.50082882  0.74948940  1
  Co  Co97  1  0.11965055  0.37556395  0.37516901  1
  Co  Co98  1  0.24918489  -0.00177197  0.25559004  1
  Co  Co99  1  0.12885388  0.88092194  0.12034242  1
  Co  Co100  1  -0.00441297  -0.00224432  -0.00111688  1
  Co  Co101  1  0.49777513  -0.00233771  0.50281156  1
  Co  Co102  1  0.00074725  0.50040906  0.74672652  1
  Co  Co103  1  0.87215492  0.62544131  0.62484241  1
  Co  Co104  1  0.62474296  0.62423774  0.62530405  1
  Co  Co105  1  -0.00384414  0.50042200  0.00500825  1
  Co  Co106  1  0.00324756  0.24869589  0.24641475  1
  Co  Co107  1  -0.00131864  0.00038573  0.49919072  1
  Co  Co108  1  0.37990355  0.37306856  0.37158496  1
  Co  Co109  1  0.25254914  0.74800166  0.00334397  1
  Co  Co110  1  0.49806057  0.50242885  0.00035632  1
  Co  Co111  1  0.86982541  0.87254382  0.12685931  1
  Co  Co112  1  0.87558314  0.37532386  0.87519858  1
  Co  Co113  1  0.87204298  0.87437781  0.62290189  1
  Co  Co114  1  0.00187827  0.74842344  0.50663903  1
  Co  Co115  1  0.37402733  0.87841770  0.12590823  1
  Co  Co116  1  0.62718823  0.38086369  0.12412356  1
  Co  Co117  1  0.50102472  0.25285965  0.50381528  1
  Co  Co118  1  0.74607084  0.75010860  0.25437300  1
  Co  Co119  1  0.74973530  0.74822106  0.75049705  1
  Co  Co120  1  0.12949117  0.62005459  0.62184017  1
  Co  Co121  1  0.25358260  -0.00025032  -0.00548480  1
  Co  Co122  1  0.62514724  0.87717576  0.37735656  1
  Co  Co123  1  0.12789016  0.87976919  0.62302961  1
  Co  Co124  1  0.11971279  0.62758368  0.87839091  1
  Co  Co125  1  0.24735412  0.25143072  0.75234288  1
  Co  Co126  1  0.62717900  0.11910921  0.12363105  1
  Co  Co127  1  0.74460748  0.24865961  0.25061959  1
