# generated using pymatgen
data_Fe45Co19
_symmetry_space_group_name_H-M   'P 1'
_cell_length_a   11.41596589
_cell_length_b   11.41647183
_cell_length_c   11.41407356
_cell_angle_alpha   89.99742412
_cell_angle_beta   90.00129392
_cell_angle_gamma   89.99575191
_symmetry_Int_Tables_number   1
_chemical_formula_structural   Fe45Co19
_chemical_formula_sum   'Fe90 Co38'
_cell_volume   1487.59680592
_cell_formula_units_Z   2
loop_
 _symmetry_equiv_pos_site_id
 _symmetry_equiv_pos_as_xyz
  1  'x, y, z'
loop_
 _atom_site_type_symbol
 _atom_site_label
 _atom_site_symmetry_multiplicity
 _atom_site_fract_x
 _atom_site_fract_y
 _atom_site_fract_z
 _atom_site_occupancy
  Fe  Fe0  1  0.88194087  0.87599818  0.37467495  1
  Fe  Fe1  1  0.50031606  0.50034898  0.74935475  1
  Fe  Fe2  1  0.87269614  0.62281450  0.62367258  1
  Fe  Fe3  1  0.24954027  -0.00228430  0.00107473  1
  Fe  Fe4  1  0.74877499  0.49871564  0.75342649  1
  Fe  Fe5  1  0.12570989  0.37916918  0.62088429  1
  Fe  Fe6  1  0.37609901  0.87246319  0.87653549  1
  Fe  Fe7  1  0.75023685  0.75309277  0.49888824  1
  Fe  Fe8  1  0.37573422  0.37594471  0.37780596  1
  Fe  Fe9  1  0.12426899  0.87459994  0.62097258  1
  Fe  Fe10  1  0.37457498  0.87839730  0.62025815  1
  Fe  Fe11  1  -0.00133120  0.75024730  0.74732713  1
  Fe  Fe12  1  0.86685852  0.62301658  0.12776514  1
  Fe  Fe13  1  0.62588039  0.87724131  0.62546930  1
  Fe  Fe14  1  0.87263066  0.12513843  0.12456072  1
  Fe  Fe15  1  0.12620911  0.12283048  0.62311094  1
  Fe  Fe16  1  0.12441388  0.87283699  0.87585606  1
  Fe  Fe17  1  -0.00085276  0.24900939  0.00036163  1
  Fe  Fe18  1  0.62728281  0.37701019  0.12450506  1
  Fe  Fe19  1  0.37842962  0.37323515  0.87370398  1
  Fe  Fe20  1  0.75153458  -0.00208750  0.25231279  1
  Fe  Fe21  1  0.75129606  0.75439797  0.75053185  1
  Fe  Fe22  1  0.87660503  0.12487688  0.37487578  1
  Fe  Fe23  1  0.50101422  0.24823584  0.00204156  1
  Fe  Fe24  1  0.25099681  0.50035461  0.74882617  1
  Fe  Fe25  1  0.49871793  0.75099606  0.74730404  1
  Fe  Fe26  1  0.75066991  0.25205872  0.75310313  1
  Fe  Fe27  1  0.49927655  -0.00056478  0.00011765  1
  Fe  Fe28  1  0.37220801  0.12339229  0.12744366  1
  Fe  Fe29  1  0.50505466  0.50410783  -0.00073440  1
  Fe  Fe30  1  0.49949950  0.00032019  0.74958770  1
  Fe  Fe31  1  0.87385263  0.62673183  0.87435666  1
  Fe  Fe32  1  0.87545482  0.87459724  0.12523908  1
  Fe  Fe33  1  0.62140973  0.87449844  0.37348642  1
  Fe  Fe34  1  0.25032137  0.50231088  0.25034723  1
  Fe  Fe35  1  0.25144393  0.25189197  0.00160265  1
  Fe  Fe36  1  -0.00219618  0.50194314  0.00054366  1
  Fe  Fe37  1  0.25055989  0.74828500  0.00500293  1
  Fe  Fe38  1  0.74983526  -0.00176310  -0.00386279  1
  Fe  Fe39  1  0.37345331  0.12468661  0.37666561  1
  Fe  Fe40  1  0.49989642  0.00061776  0.25296802  1
  Fe  Fe41  1  0.12609099  0.37306234  0.37572471  1
  Fe  Fe42  1  0.12811648  0.12661689  0.12822423  1
  Fe  Fe43  1  0.49968934  0.24838402  0.50107005  1
  Fe  Fe44  1  0.12593139  0.62628614  0.87503945  1
  Fe  Fe45  1  0.74876642  0.25115766  0.25089934  1
  Fe  Fe46  1  0.24646665  -0.00379453  0.25687369  1
  Fe  Fe47  1  0.37354402  0.12611819  0.87495248  1
  Fe  Fe48  1  0.25039104  0.74982734  0.74682052  1
  Fe  Fe49  1  -0.00402870  -0.00320421  0.74980077  1
  Fe  Fe50  1  0.50028529  0.24863597  0.24947079  1
  Fe  Fe51  1  0.37626569  0.62942819  0.37436300  1
  Fe  Fe52  1  0.62213739  0.37466030  0.62407353  1
  Fe  Fe53  1  0.87581125  0.37421297  0.37626811  1
  Fe  Fe54  1  0.50451386  0.74862104  0.00617525  1
  Fe  Fe55  1  0.37651449  0.87423448  0.12935548  1
  Fe  Fe56  1  0.87086771  0.37683025  0.12290205  1
  Fe  Fe57  1  -0.00011837  0.74688428  0.00336859  1
  Fe  Fe58  1  0.37355145  0.12237529  0.62208577  1
  Fe  Fe59  1  0.00034920  0.24906046  0.50123780  1
  Fe  Fe60  1  0.87556672  0.37762511  0.62300298  1
  Fe  Fe61  1  0.75000363  -0.00114212  0.49774688  1
  Fe  Fe62  1  0.25070906  -0.00225223  0.75065826  1
  Fe  Fe63  1  0.87262458  0.12284310  0.62560756  1
  Fe  Fe64  1  0.12499333  0.12408610  0.87390924  1
  Fe  Fe65  1  0.62733865  0.12274396  0.62502774  1
  Fe  Fe66  1  0.37399978  0.62295803  0.62184541  1
  Fe  Fe67  1  0.74486786  0.75113713  -0.00006138  1
  Fe  Fe68  1  0.00057553  0.00074299  0.00151468  1
  Fe  Fe69  1  0.62514439  0.12440646  0.87355308  1
  Fe  Fe70  1  0.62688490  0.12260886  0.12671795  1
  Fe  Fe71  1  -0.00069824  0.24964764  0.24847283  1
  Fe  Fe72  1  0.74593468  0.49794511  0.49681575  1
  Fe  Fe73  1  0.50087858  0.75007465  0.50077727  1
  Fe  Fe74  1  0.37632179  0.62744097  0.87622374  1
  Fe  Fe75  1  -0.00036785  0.50127819  0.74963475  1
  Fe  Fe76  1  0.12256821  0.87181056  0.12984497  1
  Fe  Fe77  1  -0.00198778  0.74614136  0.50203507  1
  Fe  Fe78  1  0.12545705  0.37649185  0.12638813  1
  Fe  Fe79  1  0.62670012  0.62547141  0.62429620  1
  Fe  Fe80  1  0.74899276  0.25028206  0.49832600  1
  Fe  Fe81  1  -0.00213351  0.50202880  0.25107784  1
  Fe  Fe82  1  -0.00088895  0.25120509  0.74869733  1
  Fe  Fe83  1  0.25127874  0.25195735  0.74663392  1
  Fe  Fe84  1  0.50543071  0.50368612  0.25401241  1
  Fe  Fe85  1  0.87026081  0.62490408  0.37453389  1
  Fe  Fe86  1  0.25147593  0.50028069  -0.00017668  1
  Fe  Fe87  1  0.12367774  0.37534752  0.87520899  1
  Fe  Fe88  1  0.37750392  0.37834261  0.12677484  1
  Fe  Fe89  1  0.12593510  0.62873696  0.37490097  1
  Co  Co90  1  0.50272230  0.50333233  0.49769515  1
  Co  Co91  1  0.62365807  0.62901641  0.87096219  1
  Co  Co92  1  0.74895653  0.24986054  -0.00227226  1
  Co  Co93  1  0.37654999  0.62291379  0.12647876  1
  Co  Co94  1  0.74748979  0.50109524  -0.00584546  1
  Co  Co95  1  0.11799594  0.86951256  0.37523338  1
  Co  Co96  1  0.25290402  0.25179045  0.25014350  1
  Co  Co97  1  0.25010000  0.75026528  0.24884449  1
  Co  Co98  1  0.87474727  0.87557326  0.62155265  1
  Co  Co99  1  0.62194979  0.37089341  0.37629886  1
  Co  Co100  1  0.12579230  0.62237803  0.12562489  1
  Co  Co101  1  0.37864562  0.87090972  0.37475337  1
  Co  Co102  1  0.75025546  0.75606954  0.25145460  1
  Co  Co103  1  0.62102808  0.87429429  0.87325552  1
  Co  Co104  1  0.24668548  -0.00283826  0.49373350  1
  Co  Co105  1  0.25037477  0.50245731  0.49821647  1
  Co  Co106  1  0.00075490  0.00263153  0.50061723  1
  Co  Co107  1  0.49935398  0.24779148  0.74707797  1
  Co  Co108  1  0.87685619  0.37464575  0.87610296  1
  Co  Co109  1  0.37723491  0.37774838  0.62225514  1
  Co  Co110  1  -0.00005753  0.50223885  0.49650213  1
  Co  Co111  1  0.12395968  0.12902805  0.37468201  1
  Co  Co112  1  0.62820788  0.62980549  0.37517406  1
  Co  Co113  1  0.87738514  0.87268473  0.87862285  1
  Co  Co114  1  0.74823199  0.49545774  0.25633961  1
  Co  Co115  1  0.25086493  0.25007542  0.50185181  1
  Co  Co116  1  0.62472188  0.87953401  0.12773651  1
  Co  Co117  1  0.25071051  0.75161735  0.50046488  1
  Co  Co118  1  0.87685829  0.12520340  0.87408260  1
  Co  Co119  1  0.62151155  0.37306567  0.87488277  1
  Co  Co120  1  0.12484322  0.62402598  0.62404478  1
  Co  Co121  1  -0.00354345  0.74429628  0.24815318  1
  Co  Co122  1  0.50374289  0.74799022  0.24606958  1
  Co  Co123  1  0.00151093  0.00276808  0.24838074  1
  Co  Co124  1  0.75229691  -0.00403637  0.75258012  1
  Co  Co125  1  0.63203682  0.62223661  0.13037045  1
  Co  Co126  1  0.62577753  0.12518462  0.37431550  1
  Co  Co127  1  0.50237391  0.00054155  0.49888974  1
