# generated using pymatgen
data_Fe45Co19
_symmetry_space_group_name_H-M   'P 1'
_cell_length_a   11.41488709
_cell_length_b   11.41542735
_cell_length_c   11.41606318
_cell_angle_alpha   89.99696797
_cell_angle_beta   89.99067487
_cell_angle_gamma   90.00674175
_symmetry_Int_Tables_number   1
_chemical_formula_structural   Fe45Co19
_chemical_formula_sum   'Fe90 Co38'
_cell_volume   1487.57937794
_cell_formula_units_Z   2
loop_
 _symmetry_equiv_pos_site_id
 _symmetry_equiv_pos_as_xyz
  1  'x, y, z'
loop_
 _atom_site_type_symbol
 _atom_site_label
 _atom_site_symmetry_multiplicity
 _atom_site_fract_x
 _atom_site_fract_y
 _atom_site_fract_z
 _atom_site_occupancy
  Fe  Fe0  1  -0.00081869  0.49973881  0.74837361  1
  Fe  Fe1  1  0.25151280  0.25162916  0.49786816  1
  Fe  Fe2  1  0.13045146  0.62719921  0.62148658  1
  Fe  Fe3  1  0.37571502  0.37611400  0.37333717  1
  Fe  Fe4  1  0.25172563  -0.00289161  0.00439578  1
  Fe  Fe5  1  0.62441823  0.12318115  0.12357885  1
  Fe  Fe6  1  0.62239675  0.87466744  0.62436061  1
  Fe  Fe7  1  0.49519042  -0.00123223  0.50047276  1
  Fe  Fe8  1  0.62567140  0.37495830  0.87369433  1
  Fe  Fe9  1  -0.00476801  0.50160173  0.00251684  1
  Fe  Fe10  1  0.75349161  -0.00043861  0.49867015  1
  Fe  Fe11  1  -0.00090032  -0.00152620  0.25239717  1
  Fe  Fe12  1  0.50041371  0.74829736  0.25353495  1
  Fe  Fe13  1  0.62390782  0.87564274  0.37657568  1
  Fe  Fe14  1  -0.00071931  0.24910447  0.00085626  1
  Fe  Fe15  1  0.12421826  0.37357188  0.62522553  1
  Fe  Fe16  1  0.49887047  0.00172413  0.74982895  1
  Fe  Fe17  1  0.75080799  0.50040647  0.50011857  1
  Fe  Fe18  1  -0.00016995  0.24722707  0.49954465  1
  Fe  Fe19  1  0.12455115  0.12252419  0.12428846  1
  Fe  Fe20  1  0.00224614  0.24829445  0.25111277  1
  Fe  Fe21  1  0.87531434  0.37315746  0.37607187  1
  Fe  Fe22  1  0.87641947  0.87269276  0.12628029  1
  Fe  Fe23  1  0.62316472  0.87508833  0.12453428  1
  Fe  Fe24  1  0.62397945  0.12369025  0.37721635  1
  Fe  Fe25  1  0.37228105  0.12614619  0.62524153  1
  Fe  Fe26  1  0.24626350  0.75463709  0.25277035  1
  Fe  Fe27  1  0.75524568  0.50052247  0.00196524  1
  Fe  Fe28  1  0.12327492  0.37653078  0.12599859  1
  Fe  Fe29  1  0.75024393  0.75101322  0.50121647  1
  Fe  Fe30  1  0.62372498  0.37491148  0.62410696  1
  Fe  Fe31  1  0.25095605  0.50030771  -0.00052069  1
  Fe  Fe32  1  0.62425696  0.37594832  0.37655781  1
  Fe  Fe33  1  0.00434249  0.75251383  0.25414018  1
  Fe  Fe34  1  0.87444665  0.12665151  0.62427036  1
  Fe  Fe35  1  0.87565742  0.62680200  0.62518630  1
  Fe  Fe36  1  0.74866750  0.75078773  0.25059796  1
  Fe  Fe37  1  0.75171378  0.24963118  -0.00030685  1
  Fe  Fe38  1  0.87669494  0.12490528  0.87312062  1
  Fe  Fe39  1  0.12164790  0.37453537  0.87481358  1
  Fe  Fe40  1  0.49890787  0.50220233  0.75099925  1
  Fe  Fe41  1  0.24970735  0.24598900  0.25048183  1
  Fe  Fe42  1  0.50083864  0.74709643  0.75113033  1
  Fe  Fe43  1  0.74924604  0.24884787  0.25140872  1
  Fe  Fe44  1  -0.00187536  -0.00052996  0.00078837  1
  Fe  Fe45  1  0.00223548  0.50120127  0.49910477  1
  Fe  Fe46  1  0.75357520  0.49874889  0.74782633  1
  Fe  Fe47  1  0.62778697  0.62647453  0.12355201  1
  Fe  Fe48  1  0.49887045  0.24626335  0.25057947  1
  Fe  Fe49  1  0.37506794  0.37503914  0.12672652  1
  Fe  Fe50  1  0.12475269  0.87812383  0.87433649  1
  Fe  Fe51  1  0.24918340  0.25085627  0.00216629  1
  Fe  Fe52  1  0.37391052  0.37566526  0.62756938  1
  Fe  Fe53  1  0.12588792  0.62252494  0.87466719  1
  Fe  Fe54  1  0.37374402  0.87440945  0.87165707  1
  Fe  Fe55  1  0.12916648  0.11561540  0.37975066  1
  Fe  Fe56  1  0.87641305  0.62746605  0.37471627  1
  Fe  Fe57  1  0.24797406  0.50079233  0.25148249  1
  Fe  Fe58  1  0.49894124  0.50205604  -0.00147504  1
  Fe  Fe59  1  0.62507007  0.37551892  0.12540152  1
  Fe  Fe60  1  0.37213258  0.12479862  0.87563626  1
  Fe  Fe61  1  0.49526014  0.74969698  0.49696417  1
  Fe  Fe62  1  0.37450602  0.37492844  0.87267247  1
  Fe  Fe63  1  0.75100269  -0.00460590  -0.00299678  1
  Fe  Fe64  1  0.49915670  0.24910198  0.50056885  1
  Fe  Fe65  1  0.12450406  0.37666194  0.37480595  1
  Fe  Fe66  1  0.36869064  0.62631390  0.62484275  1
  Fe  Fe67  1  0.00641421  0.00521178  0.74645336  1
  Fe  Fe68  1  0.37298955  0.62704509  0.12623473  1
  Fe  Fe69  1  -0.00197879  0.74914370  -0.00197848  1
  Fe  Fe70  1  0.87451074  0.12471792  0.12690016  1
  Fe  Fe71  1  0.75044654  -0.00070135  0.25214848  1
  Fe  Fe72  1  0.50004698  0.50380249  0.25119925  1
  Fe  Fe73  1  0.00291416  0.74855932  0.75020555  1
  Fe  Fe74  1  0.75327465  0.50096773  0.24986971  1
  Fe  Fe75  1  0.49726223  0.50295128  0.49889451  1
  Fe  Fe76  1  0.49975160  0.25069778  -0.00051731  1
  Fe  Fe77  1  0.62590123  0.12472845  0.62491919  1
  Fe  Fe78  1  0.24515835  0.24690704  0.75109658  1
  Fe  Fe79  1  0.87800616  0.87451086  0.62678605  1
  Fe  Fe80  1  0.63082091  0.62758048  0.87485923  1
  Fe  Fe81  1  0.12287669  0.62479800  0.12663199  1
  Fe  Fe82  1  0.00408864  0.75367269  0.49734369  1
  Fe  Fe83  1  0.49870616  -0.00131907  0.00046559  1
  Fe  Fe84  1  0.62568147  0.62629413  0.62418593  1
  Fe  Fe85  1  0.24876127  0.75064315  -0.00118199  1
  Fe  Fe86  1  0.49935939  0.74889976  -0.00134911  1
  Fe  Fe87  1  0.74910839  -0.00433680  0.75121978  1
  Fe  Fe88  1  0.62489126  0.12509326  0.87354533  1
  Fe  Fe89  1  0.75187659  0.25265654  0.74832735  1
  Co  Co90  1  0.62715363  0.62505425  0.37647500  1
  Co  Co91  1  0.87789287  0.37389679  0.62196679  1
  Co  Co92  1  0.62089505  0.87333239  0.87360809  1
  Co  Co93  1  0.37081884  0.12002459  0.37646217  1
  Co  Co94  1  0.12761334  0.88385186  0.37758499  1
  Co  Co95  1  0.87654714  0.63054736  0.12804791  1
  Co  Co96  1  0.50040043  0.00232209  0.24897506  1
  Co  Co97  1  0.12360871  0.87479745  0.62463273  1
  Co  Co98  1  0.37772267  0.87070964  0.12720040  1
  Co  Co99  1  0.37717504  0.87079503  0.63186279  1
  Co  Co100  1  0.12768914  0.62496492  0.37724973  1
  Co  Co101  1  0.37226560  0.62588521  0.87372266  1
  Co  Co102  1  0.36881272  0.62544303  0.37559278  1
  Co  Co103  1  0.74876903  0.24927516  0.50043069  1
  Co  Co104  1  0.00258532  0.24604428  0.74867798  1
  Co  Co105  1  -0.00540912  -0.00129715  0.50061577  1
  Co  Co106  1  0.87387976  0.87226874  0.37510711  1
  Co  Co107  1  0.49982595  0.24827987  0.74937763  1
  Co  Co108  1  0.74962022  0.75490127  0.74874393  1
  Co  Co109  1  0.25036035  -0.00060397  0.24284050  1
  Co  Co110  1  0.24761265  0.49912501  0.75023542  1
  Co  Co111  1  0.24705874  0.00159737  0.74733166  1
  Co  Co112  1  0.87587743  0.37151406  0.12670479  1
  Co  Co113  1  -0.00144491  0.49999486  0.25127846  1
  Co  Co114  1  0.12789279  0.12425498  0.61591059  1
  Co  Co115  1  0.12211401  0.87468030  0.12271689  1
  Co  Co116  1  0.24608196  0.75149530  0.75195135  1
  Co  Co117  1  0.24934517  0.49667773  0.49995857  1
  Co  Co118  1  0.75335508  0.75525838  -0.00223140  1
  Co  Co119  1  0.87259215  0.62633975  0.87164776  1
  Co  Co120  1  0.87767195  0.37391344  0.87475350  1
  Co  Co121  1  0.37470928  0.87914326  0.36945277  1
  Co  Co122  1  0.87601011  0.12665826  0.37443151  1
  Co  Co123  1  0.37588897  0.12636649  0.12357980  1
  Co  Co124  1  0.12599767  0.12312060  0.88055430  1
  Co  Co125  1  0.25169734  0.75722688  0.49733230  1
  Co  Co126  1  0.88126899  0.87608737  0.87019088  1
  Co  Co127  1  0.25601032  -0.00799526  0.50790392  1
