# generated using pymatgen
data_Fe45Co19
_symmetry_space_group_name_H-M   'P 1'
_cell_length_a   11.41463154
_cell_length_b   11.41364922
_cell_length_c   11.41428479
_cell_angle_alpha   90.00631655
_cell_angle_beta   90.00194575
_cell_angle_gamma   90.00067666
_symmetry_Int_Tables_number   1
_chemical_formula_structural   Fe45Co19
_chemical_formula_sum   'Fe90 Co38'
_cell_volume   1487.08269440
_cell_formula_units_Z   2
loop_
 _symmetry_equiv_pos_site_id
 _symmetry_equiv_pos_as_xyz
  1  'x, y, z'
loop_
 _atom_site_type_symbol
 _atom_site_label
 _atom_site_symmetry_multiplicity
 _atom_site_fract_x
 _atom_site_fract_y
 _atom_site_fract_z
 _atom_site_occupancy
  Fe  Fe0  1  0.12668669  0.62688310  0.62379885  1
  Fe  Fe1  1  0.87549492  0.12339219  0.12318736  1
  Fe  Fe2  1  0.49659144  0.25293637  -0.00000478  1
  Fe  Fe3  1  0.00431431  -0.00353062  0.50229625  1
  Fe  Fe4  1  0.87376183  0.12303169  0.37770718  1
  Fe  Fe5  1  0.37746001  0.12404292  0.37845798  1
  Fe  Fe6  1  0.75091654  0.24867580  0.24973747  1
  Fe  Fe7  1  0.00296874  0.00076836  -0.00011876  1
  Fe  Fe8  1  0.37116250  0.87771205  0.87466343  1
  Fe  Fe9  1  0.00119869  0.75201886  0.74976959  1
  Fe  Fe10  1  0.74748115  -0.00143271  0.50324372  1
  Fe  Fe11  1  -0.00423100  0.25001916  0.25050340  1
  Fe  Fe12  1  0.62540360  0.12547948  0.87488161  1
  Fe  Fe13  1  0.37302673  0.87684797  0.62461812  1
  Fe  Fe14  1  0.24709944  0.00399601  0.50295912  1
  Fe  Fe15  1  0.00146635  0.25024177  0.00098757  1
  Fe  Fe16  1  0.00111593  0.75226036  0.25098502  1
  Fe  Fe17  1  0.37312280  0.62295232  0.12578769  1
  Fe  Fe18  1  0.50272787  0.49808752  0.49947521  1
  Fe  Fe19  1  0.49969807  -0.00025836  -0.00145212  1
  Fe  Fe20  1  0.00288055  0.49876384  0.74929616  1
  Fe  Fe21  1  0.87502488  0.87566390  0.87551997  1
  Fe  Fe22  1  0.49918783  0.00017783  0.25190505  1
  Fe  Fe23  1  0.25431133  0.24778916  0.24951559  1
  Fe  Fe24  1  0.25200384  0.74675997  0.74965386  1
  Fe  Fe25  1  0.12631748  0.87779141  0.12871000  1
  Fe  Fe26  1  0.62361878  0.62517209  0.12545080  1
  Fe  Fe27  1  0.49841277  0.75088054  0.50034055  1
  Fe  Fe28  1  0.87241217  0.37560249  0.37560547  1
  Fe  Fe29  1  0.87394475  0.37519194  0.62402665  1
  Fe  Fe30  1  0.75008800  -0.00191696  0.74760004  1
  Fe  Fe31  1  0.49890166  0.49809484  -0.00107077  1
  Fe  Fe32  1  0.49843454  0.00113559  0.74898707  1
  Fe  Fe33  1  -0.00015061  0.25101862  0.49852041  1
  Fe  Fe34  1  0.49907491  0.75075836  0.25071543  1
  Fe  Fe35  1  0.49885686  0.25065347  0.25220520  1
  Fe  Fe36  1  0.49741877  0.75081779  -0.00101433  1
  Fe  Fe37  1  0.62467696  0.87553907  0.37615983  1
  Fe  Fe38  1  0.49942956  0.49777643  0.25306337  1
  Fe  Fe39  1  0.75007129  0.00065446  0.24996561  1
  Fe  Fe40  1  0.88033643  0.12279565  0.62652669  1
  Fe  Fe41  1  0.00319175  0.49766061  0.49898900  1
  Fe  Fe42  1  0.74737820  0.50061246  0.49978049  1
  Fe  Fe43  1  0.12725182  0.37300063  0.12874955  1
  Fe  Fe44  1  0.62196264  0.12476984  0.62329980  1
  Fe  Fe45  1  0.62306500  0.12390913  0.12462669  1
  Fe  Fe46  1  0.62588907  0.62913854  0.62558021  1
  Fe  Fe47  1  0.37229616  0.12711771  0.87695045  1
  Fe  Fe48  1  0.62525946  0.87476372  0.87366021  1
  Fe  Fe49  1  0.74953689  0.74894796  0.25243055  1
  Fe  Fe50  1  0.62475492  0.37491360  0.87247029  1
  Fe  Fe51  1  0.87367692  0.87483473  0.12285255  1
  Fe  Fe52  1  0.37391913  0.62331117  0.87581920  1
  Fe  Fe53  1  0.62536913  0.87625379  0.12377107  1
  Fe  Fe54  1  0.75046150  0.50124558  0.25047887  1
  Fe  Fe55  1  0.87714238  0.62586585  0.37715376  1
  Fe  Fe56  1  0.49893680  0.49969160  0.74848782  1
  Fe  Fe57  1  0.24693715  0.49875808  0.49598028  1
  Fe  Fe58  1  0.00190773  0.49950938  0.25198815  1
  Fe  Fe59  1  0.12677538  0.36957026  0.62441330  1
  Fe  Fe60  1  0.87528602  0.87560586  0.37733497  1
  Fe  Fe61  1  0.87459119  0.37543846  0.87499638  1
  Fe  Fe62  1  0.25009877  0.49987664  0.74912389  1
  Fe  Fe63  1  0.12297050  0.12269844  0.37086240  1
  Fe  Fe64  1  0.24746077  0.00788687  0.74631994  1
  Fe  Fe65  1  0.74935735  0.50235110  0.75000363  1
  Fe  Fe66  1  0.87897782  0.62529083  0.87563883  1
  Fe  Fe67  1  0.37143735  0.87691130  0.37699631  1
  Fe  Fe68  1  0.37340283  0.87708997  0.12473235  1
  Fe  Fe69  1  0.62464435  0.37455009  0.12661032  1
  Fe  Fe70  1  0.74959700  0.50018930  -0.00030431  1
  Fe  Fe71  1  0.00503181  0.75405181  0.49997179  1
  Fe  Fe72  1  0.75165225  0.24871991  0.74704790  1
  Fe  Fe73  1  0.75032927  0.25031764  0.00037453  1
  Fe  Fe74  1  0.37394067  0.62359329  0.37636738  1
  Fe  Fe75  1  0.49703258  0.25041058  0.74941041  1
  Fe  Fe76  1  0.87829818  0.12362194  0.87296295  1
  Fe  Fe77  1  0.12838381  0.87420018  0.87474870  1
  Fe  Fe78  1  0.00336968  0.49771851  -0.00127286  1
  Fe  Fe79  1  0.87767481  0.62511945  0.12338576  1
  Fe  Fe80  1  0.24954953  0.74879864  0.25190162  1
  Fe  Fe81  1  0.24718779  0.00582283  0.00318508  1
  Fe  Fe82  1  0.87501467  0.62865339  0.62357151  1
  Fe  Fe83  1  0.12520230  0.62610978  0.12386849  1
  Fe  Fe84  1  0.37291990  0.37295570  0.62183670  1
  Fe  Fe85  1  0.24949800  0.49860907  -0.00046264  1
  Fe  Fe86  1  0.12999383  0.36881294  0.87284700  1
  Fe  Fe87  1  0.49712366  0.74886741  0.75034779  1
  Fe  Fe88  1  0.74907886  0.74820376  -0.00246743  1
  Fe  Fe89  1  0.50349450  0.25268736  0.49768414  1
  Co  Co90  1  0.37343578  0.62273139  0.62201379  1
  Co  Co91  1  0.62572789  0.12473692  0.37617392  1
  Co  Co92  1  0.74788348  0.75071870  0.49743404  1
  Co  Co93  1  0.25486117  0.00367236  0.24970389  1
  Co  Co94  1  0.12244930  0.12560296  0.13094498  1
  Co  Co95  1  0.62244954  0.62465048  0.87463242  1
  Co  Co96  1  0.62910933  0.37350369  0.37386721  1
  Co  Co97  1  0.25095104  0.24804969  0.00485773  1
  Co  Co98  1  0.12562540  0.37036563  0.37197505  1
  Co  Co99  1  0.11745031  0.12918334  0.62804482  1
  Co  Co100  1  0.12507731  0.62678822  0.87429929  1
  Co  Co101  1  -0.00287542  0.25456816  0.75029506  1
  Co  Co102  1  0.24729269  0.50204368  0.25375397  1
  Co  Co103  1  0.50096057  -0.00313671  0.49979177  1
  Co  Co104  1  0.12386833  0.12938661  0.87214021  1
  Co  Co105  1  0.25134429  0.75020264  0.00137523  1
  Co  Co106  1  0.37983898  0.12383245  0.12415198  1
  Co  Co107  1  0.74977885  0.00126569  -0.00114234  1
  Co  Co108  1  0.00223900  0.75317429  0.00050164  1
  Co  Co109  1  0.75159811  0.75021131  0.75257979  1
  Co  Co110  1  0.24666458  0.24462667  0.49904955  1
  Co  Co111  1  0.87581300  0.37661263  0.12497470  1
  Co  Co112  1  0.87457606  0.87299065  0.62365564  1
  Co  Co113  1  0.62535877  0.37417736  0.62651864  1
  Co  Co114  1  0.62282017  0.87191943  0.62653240  1
  Co  Co115  1  0.13021622  0.87293796  0.62708142  1
  Co  Co116  1  0.12804126  0.87904434  0.37184729  1
  Co  Co117  1  0.12310788  0.62706886  0.37660131  1
  Co  Co118  1  0.00300214  -0.00548768  0.75026583  1
  Co  Co119  1  0.75074209  0.24815716  0.50340505  1
  Co  Co120  1  0.62297065  0.62496424  0.37499618  1
  Co  Co121  1  0.37290490  0.37512020  0.37719843  1
  Co  Co122  1  0.37980015  0.12630433  0.61985045  1
  Co  Co123  1  0.37196264  0.37399853  0.87274193  1
  Co  Co124  1  0.24981874  0.75038368  0.49799464  1
  Co  Co125  1  0.25375184  0.24514446  0.74485316  1
  Co  Co126  1  -0.00511862  -0.00169004  0.24936372  1
  Co  Co127  1  0.37347017  0.37789337  0.12740283  1
