# generated using pymatgen
data_Fe45Co19
_symmetry_space_group_name_H-M   'P 1'
_cell_length_a   11.41515257
_cell_length_b   11.41458051
_cell_length_c   11.41525435
_cell_angle_alpha   89.99452212
_cell_angle_beta   90.00076490
_cell_angle_gamma   90.00431965
_symmetry_Int_Tables_number   1
_chemical_formula_structural   Fe45Co19
_chemical_formula_sum   'Fe90 Co38'
_cell_volume   1487.39824748
_cell_formula_units_Z   2
loop_
 _symmetry_equiv_pos_site_id
 _symmetry_equiv_pos_as_xyz
  1  'x, y, z'
loop_
 _atom_site_type_symbol
 _atom_site_label
 _atom_site_symmetry_multiplicity
 _atom_site_fract_x
 _atom_site_fract_y
 _atom_site_fract_z
 _atom_site_occupancy
  Fe  Fe0  1  0.37558674  0.62145836  0.12829157  1
  Fe  Fe1  1  0.75141785  0.25068311  -0.00176287  1
  Fe  Fe2  1  0.87497476  0.12479924  0.12126516  1
  Fe  Fe3  1  0.12471157  0.62486384  0.12921576  1
  Fe  Fe4  1  0.62602651  0.37251796  0.37603829  1
  Fe  Fe5  1  0.24904430  0.75041008  0.49826339  1
  Fe  Fe6  1  0.37533764  0.87546833  0.37525439  1
  Fe  Fe7  1  0.37789458  0.37786160  0.12440989  1
  Fe  Fe8  1  0.12399114  0.37489066  0.37505280  1
  Fe  Fe9  1  0.50243385  0.24771607  0.24921432  1
  Fe  Fe10  1  0.37124780  0.12426210  0.62552715  1
  Fe  Fe11  1  0.62482374  0.62425085  0.12490106  1
  Fe  Fe12  1  0.24968983  -0.00091828  0.25004695  1
  Fe  Fe13  1  0.37164321  0.12586066  0.87330475  1
  Fe  Fe14  1  -0.00210001  0.74937635  0.00209169  1
  Fe  Fe15  1  0.87582593  0.87410138  0.37797623  1
  Fe  Fe16  1  0.62547088  0.87211173  0.62825658  1
  Fe  Fe17  1  0.74966264  0.00121388  0.24864104  1
  Fe  Fe18  1  0.87595390  0.62559484  0.37582089  1
  Fe  Fe19  1  0.75274211  0.00054233  0.74862333  1
  Fe  Fe20  1  0.62444849  0.37662546  0.12381107  1
  Fe  Fe21  1  0.37323961  0.12428273  0.37712842  1
  Fe  Fe22  1  0.75005960  0.24900021  0.24868946  1
  Fe  Fe23  1  0.37522998  0.62299203  0.87463319  1
  Fe  Fe24  1  0.24767792  0.49777393  0.75054098  1
  Fe  Fe25  1  0.37666936  0.37627591  0.37480341  1
  Fe  Fe26  1  0.75056922  0.49874338  0.25114776  1
  Fe  Fe27  1  0.37614625  0.37548447  0.62545395  1
  Fe  Fe28  1  0.87731307  0.37680073  0.62438448  1
  Fe  Fe29  1  0.62683697  0.86836045  0.87186143  1
  Fe  Fe30  1  0.12276312  0.62605948  0.87422387  1
  Fe  Fe31  1  0.87539028  0.87172467  0.87514171  1
  Fe  Fe32  1  0.00060362  0.50362213  0.74852295  1
  Fe  Fe33  1  0.87457769  0.62269601  0.12531635  1
  Fe  Fe34  1  0.00065185  0.24878333  0.75164002  1
  Fe  Fe35  1  0.49860760  -0.00002208  0.75053104  1
  Fe  Fe36  1  0.12334937  0.87540719  0.12556760  1
  Fe  Fe37  1  0.00076708  0.24923345  0.50127012  1
  Fe  Fe38  1  0.12233736  0.37455224  0.12483539  1
  Fe  Fe39  1  0.49943837  0.24999313  -0.00228006  1
  Fe  Fe40  1  0.24971135  0.74897116  0.00135654  1
  Fe  Fe41  1  0.37383832  0.12464496  0.12321001  1
  Fe  Fe42  1  0.12349231  0.87245032  0.62697786  1
  Fe  Fe43  1  0.24622852  0.00034791  -0.00199717  1
  Fe  Fe44  1  0.62385908  0.37535297  0.62648412  1
  Fe  Fe45  1  0.37328830  0.62458436  0.62462508  1
  Fe  Fe46  1  0.87230205  0.12638659  0.37831349  1
  Fe  Fe47  1  0.37620788  0.87615491  0.12392746  1
  Fe  Fe48  1  0.87451792  0.37512343  0.37734172  1
  Fe  Fe49  1  0.00344838  0.50317049  0.50052493  1
  Fe  Fe50  1  -0.00101361  0.49915525  0.00226086  1
  Fe  Fe51  1  0.62699527  0.62669216  0.37579490  1
  Fe  Fe52  1  0.00279411  0.00331530  -0.00331009  1
  Fe  Fe53  1  0.50268594  0.00294431  0.25006486  1
  Fe  Fe54  1  0.25055294  0.25164611  0.24986441  1
  Fe  Fe55  1  -0.00314321  0.25106000  0.24777167  1
  Fe  Fe56  1  0.74833624  0.50257955  -0.00487436  1
  Fe  Fe57  1  0.24948081  0.49870296  -0.00014966  1
  Fe  Fe58  1  0.75226851  0.74938558  0.50542925  1
  Fe  Fe59  1  0.49973519  0.74786921  0.50090253  1
  Fe  Fe60  1  0.62602456  0.12595484  0.87253848  1
  Fe  Fe61  1  0.12728027  0.12531440  0.62552413  1
  Fe  Fe62  1  0.50195616  0.00078385  -0.00271708  1
  Fe  Fe63  1  0.37384283  0.87493564  0.87663707  1
  Fe  Fe64  1  0.50173715  0.00076699  0.50140875  1
  Fe  Fe65  1  0.74825937  -0.00164081  -0.00158992  1
  Fe  Fe66  1  0.50119452  0.50295281  0.49886042  1
  Fe  Fe67  1  0.12300188  0.87206497  0.37306799  1
  Fe  Fe68  1  -0.00167752  0.00066463  0.25033715  1
  Fe  Fe69  1  0.00099429  -0.00008168  0.75221630  1
  Fe  Fe70  1  0.87820065  0.37598392  0.87525261  1
  Fe  Fe71  1  0.24730172  0.25223993  -0.00195385  1
  Fe  Fe72  1  0.12719830  0.12670078  0.37449671  1
  Fe  Fe73  1  0.50043090  0.74727242  -0.00161371  1
  Fe  Fe74  1  0.12568650  0.62665285  0.37039212  1
  Fe  Fe75  1  0.62267694  0.37481290  0.87300366  1
  Fe  Fe76  1  0.00239949  0.00034359  0.50026541  1
  Fe  Fe77  1  0.62664615  0.87490666  0.37510911  1
  Fe  Fe78  1  0.24802111  0.49860690  0.50008812  1
  Fe  Fe79  1  0.74854961  0.49990899  0.50277762  1
  Fe  Fe80  1  0.50095971  0.50182435  0.75224879  1
  Fe  Fe81  1  0.49860609  0.74803896  0.25161560  1
  Fe  Fe82  1  0.62454617  0.87397841  0.12463610  1
  Fe  Fe83  1  0.25027998  0.75146458  0.75254034  1
  Fe  Fe84  1  0.75412577  0.75213772  0.24723075  1
  Fe  Fe85  1  0.24841009  0.25453970  0.75057393  1
  Fe  Fe86  1  0.50110939  0.24738765  0.50186846  1
  Fe  Fe87  1  0.37300072  0.87546221  0.62447917  1
  Fe  Fe88  1  0.75185060  0.24993778  0.74716341  1
  Fe  Fe89  1  0.74975583  0.00218439  0.50366360  1
  Co  Co90  1  0.87269432  0.37576057  0.12270502  1
  Co  Co91  1  0.87765801  0.87737625  0.62381118  1
  Co  Co92  1  0.75003878  0.25054166  0.50537159  1
  Co  Co93  1  0.87457905  0.62067002  0.62305181  1
  Co  Co94  1  0.62466150  0.62574544  0.62839977  1
  Co  Co95  1  0.24861001  -0.00331751  0.75138600  1
  Co  Co96  1  0.87798452  0.12476031  0.62493401  1
  Co  Co97  1  0.12832978  0.62719111  0.62735815  1
  Co  Co98  1  0.25200815  0.75219850  0.24844805  1
  Co  Co99  1  0.12264934  0.37495678  0.62531433  1
  Co  Co100  1  0.87357760  0.12512589  0.87560923  1
  Co  Co101  1  0.49503753  0.75067441  0.74944538  1
  Co  Co102  1  0.37187653  0.62336454  0.37492280  1
  Co  Co103  1  0.62475381  0.12447160  0.62702006  1
  Co  Co104  1  -0.00402355  0.74811454  0.74733555  1
  Co  Co105  1  -0.00154626  0.49830373  0.25006254  1
  Co  Co106  1  0.24904868  0.49646655  0.25016297  1
  Co  Co107  1  0.62588225  0.12532135  0.12150177  1
  Co  Co108  1  0.87681579  0.62556394  0.87602651  1
  Co  Co109  1  0.00075557  0.24873172  -0.00028820  1
  Co  Co110  1  0.00063467  0.74703724  0.50198687  1
  Co  Co111  1  0.62768919  0.12551788  0.37758317  1
  Co  Co112  1  0.75727482  0.74644643  0.74695582  1
  Co  Co113  1  0.12125170  0.37744774  0.87573608  1
  Co  Co114  1  0.24700080  -0.00211808  0.49932815  1
  Co  Co115  1  0.50274143  0.50055624  0.25262609  1
  Co  Co116  1  0.12457988  0.12550768  0.12648663  1
  Co  Co117  1  0.12764171  0.12727169  0.87259763  1
  Co  Co118  1  0.24982859  0.25283473  0.50080523  1
  Co  Co119  1  0.62574717  0.63038477  0.87019444  1
  Co  Co120  1  0.49866530  0.24834982  0.74996077  1
  Co  Co121  1  0.37584565  0.37617592  0.87472123  1
  Co  Co122  1  0.12295127  0.87054648  0.87560621  1
  Co  Co123  1  0.75045928  0.49944802  0.75186691  1
  Co  Co124  1  0.50202187  0.50203656  -0.00324548  1
  Co  Co125  1  0.87645269  0.87950133  0.12172385  1
  Co  Co126  1  -0.00439475  0.75070108  0.24810108  1
  Co  Co127  1  0.75120600  0.74824136  0.00209167  1
