# generated using pymatgen
data_Fe45Co19
_symmetry_space_group_name_H-M   'P 1'
_cell_length_a   11.41481593
_cell_length_b   11.41493304
_cell_length_c   11.41536309
_cell_angle_alpha   90.00032415
_cell_angle_beta   90.00344300
_cell_angle_gamma   90.00128984
_symmetry_Int_Tables_number   1
_chemical_formula_structural   Fe45Co19
_chemical_formula_sum   'Fe90 Co38'
_cell_volume   1487.41449559
_cell_formula_units_Z   2
loop_
 _symmetry_equiv_pos_site_id
 _symmetry_equiv_pos_as_xyz
  1  'x, y, z'
loop_
 _atom_site_type_symbol
 _atom_site_label
 _atom_site_symmetry_multiplicity
 _atom_site_fract_x
 _atom_site_fract_y
 _atom_site_fract_z
 _atom_site_occupancy
  Fe  Fe0  1  0.75128511  0.74881510  0.25177756  1
  Fe  Fe1  1  0.37560192  0.12605841  0.87637668  1
  Fe  Fe2  1  0.25124617  0.24948824  0.49890431  1
  Fe  Fe3  1  0.12501862  0.12363803  0.62418177  1
  Fe  Fe4  1  0.12708411  0.37637392  0.87457641  1
  Fe  Fe5  1  0.75158228  -0.00053642  0.00240867  1
  Fe  Fe6  1  0.00069338  0.49756316  0.49845911  1
  Fe  Fe7  1  0.87313538  0.62069748  0.87498866  1
  Fe  Fe8  1  -0.00029814  0.00070213  0.75102147  1
  Fe  Fe9  1  0.75160086  0.50148164  0.25106442  1
  Fe  Fe10  1  0.87595361  0.12730518  0.87757139  1
  Fe  Fe11  1  0.87833527  0.62631370  0.62304113  1
  Fe  Fe12  1  0.50026947  0.25321962  0.25338635  1
  Fe  Fe13  1  0.24814820  0.74714210  0.74898801  1
  Fe  Fe14  1  0.74866545  0.74839298  -0.00015252  1
  Fe  Fe15  1  0.62434518  0.37372914  0.62271911  1
  Fe  Fe16  1  0.75215617  0.24818280  0.25332528  1
  Fe  Fe17  1  0.00064181  0.25008494  0.75220531  1
  Fe  Fe18  1  0.12491113  0.62350282  0.12159333  1
  Fe  Fe19  1  0.49964861  0.25498406  -0.00131490  1
  Fe  Fe20  1  0.74863841  0.00365165  0.75012498  1
  Fe  Fe21  1  0.24864171  0.24979925  0.00340211  1
  Fe  Fe22  1  0.37806079  0.12624077  0.12398606  1
  Fe  Fe23  1  0.62697152  0.61879718  0.87581487  1
  Fe  Fe24  1  0.37338993  0.87383250  0.37622371  1
  Fe  Fe25  1  0.62300623  0.62395766  0.37584991  1
  Fe  Fe26  1  0.62379324  0.87591642  0.62729003  1
  Fe  Fe27  1  0.00224841  0.74891624  0.75063181  1
  Fe  Fe28  1  -0.00121051  0.75192759  -0.00033712  1
  Fe  Fe29  1  0.24881802  0.50303646  0.74918340  1
  Fe  Fe30  1  0.24844093  0.24817554  0.75062564  1
  Fe  Fe31  1  0.87306201  0.87463827  0.87459903  1
  Fe  Fe32  1  0.37108231  0.37811447  0.13092242  1
  Fe  Fe33  1  0.37675177  0.12604895  0.62462997  1
  Fe  Fe34  1  0.49738780  0.49783970  0.00163050  1
  Fe  Fe35  1  0.87492432  0.37267243  0.62482148  1
  Fe  Fe36  1  0.74869495  0.74994676  0.49998089  1
  Fe  Fe37  1  0.12662445  0.37539138  0.62543874  1
  Fe  Fe38  1  0.00030349  0.50077688  0.25250837  1
  Fe  Fe39  1  0.25156005  0.00070991  0.75035482  1
  Fe  Fe40  1  0.62432500  0.87641247  0.87403014  1
  Fe  Fe41  1  0.74711014  0.25099868  0.75290605  1
  Fe  Fe42  1  0.74855277  0.24752811  0.49551986  1
  Fe  Fe43  1  0.12576828  0.62585356  0.37764605  1
  Fe  Fe44  1  0.87555576  0.12572383  0.62351980  1
  Fe  Fe45  1  0.37486215  0.87616858  0.62582609  1
  Fe  Fe46  1  0.50139653  0.00057520  0.50125620  1
  Fe  Fe47  1  0.00253907  0.75506791  0.49820471  1
  Fe  Fe48  1  0.75154899  0.50148574  0.50006260  1
  Fe  Fe49  1  0.12498896  0.12373503  0.37232059  1
  Fe  Fe50  1  0.49966902  0.74929331  0.75147378  1
  Fe  Fe51  1  0.37334976  0.62445287  0.87856918  1
  Fe  Fe52  1  0.25230834  0.00258936  0.24740979  1
  Fe  Fe53  1  0.00086219  0.50051898  0.74948656  1
  Fe  Fe54  1  0.49864480  -0.00271626  -0.00132888  1
  Fe  Fe55  1  0.75183840  0.00182682  0.24945856  1
  Fe  Fe56  1  0.74868895  0.74638147  0.74873726  1
  Fe  Fe57  1  0.87713078  0.37324632  0.12743720  1
  Fe  Fe58  1  -0.00244497  -0.00280722  0.24966072  1
  Fe  Fe59  1  0.62334273  0.12648280  0.12420596  1
  Fe  Fe60  1  0.37378999  0.37306747  0.62652844  1
  Fe  Fe61  1  0.37749806  0.12594443  0.37529801  1
  Fe  Fe62  1  0.25011113  0.75066798  -0.00002008  1
  Fe  Fe63  1  0.88000939  0.12773770  0.12340842  1
  Fe  Fe64  1  0.37489119  0.62470727  0.62067575  1
  Fe  Fe65  1  -0.00080633  0.49691314  -0.00036332  1
  Fe  Fe66  1  0.87482982  0.87558942  0.62494421  1
  Fe  Fe67  1  0.12522546  0.12268472  0.88012529  1
  Fe  Fe68  1  0.49532973  0.49530531  0.49431359  1
  Fe  Fe69  1  0.13024995  0.37438783  0.37164991  1
  Fe  Fe70  1  0.00136404  0.25092092  0.49697716  1
  Fe  Fe71  1  0.25021704  0.74622700  0.24827698  1
  Fe  Fe72  1  0.62496401  0.37674262  0.12783434  1
  Fe  Fe73  1  0.62242025  0.62415531  0.12491445  1
  Fe  Fe74  1  0.00292697  -0.00313670  0.49852200  1
  Fe  Fe75  1  0.49935092  -0.00143074  0.24882242  1
  Fe  Fe76  1  0.62118347  0.62372847  0.62294476  1
  Fe  Fe77  1  0.24758529  0.75250506  0.50226154  1
  Fe  Fe78  1  0.50395344  0.24969965  0.75288004  1
  Fe  Fe79  1  0.74825980  0.00147287  0.49801714  1
  Fe  Fe80  1  0.75009355  0.25405883  -0.00156564  1
  Fe  Fe81  1  0.12669018  0.87634955  0.87535210  1
  Fe  Fe82  1  0.62455113  0.87546187  0.37331113  1
  Fe  Fe83  1  0.49729100  0.74630786  0.25127783  1
  Fe  Fe84  1  0.49868430  0.49869426  0.75042089  1
  Fe  Fe85  1  0.12501597  0.87734927  0.12485035  1
  Fe  Fe86  1  0.12696282  0.37458536  0.12890714  1
  Fe  Fe87  1  0.62463805  0.87314224  0.12523151  1
  Fe  Fe88  1  0.37603428  0.87119330  0.12255646  1
  Fe  Fe89  1  0.87665938  0.62728012  0.12657571  1
  Co  Co90  1  0.62146516  0.12480782  0.37219087  1
  Co  Co91  1  0.12927766  0.87561141  0.37048243  1
  Co  Co92  1  0.24995469  0.00157825  0.49905555  1
  Co  Co93  1  0.36880919  0.37386035  0.36961784  1
  Co  Co94  1  0.25308648  0.00090720  0.00313281  1
  Co  Co95  1  0.75030725  0.50008187  0.74329357  1
  Co  Co96  1  0.87343839  0.87368379  0.37473907  1
  Co  Co97  1  0.49968524  0.00190051  0.75036721  1
  Co  Co98  1  0.50265193  0.74939959  -0.00262600  1
  Co  Co99  1  0.24953175  0.24313094  0.24752429  1
  Co  Co100  1  0.12324666  0.62426059  0.62150548  1
  Co  Co101  1  0.37330230  0.87341092  0.87404238  1
  Co  Co102  1  -0.00013735  0.25107751  0.25290038  1
  Co  Co103  1  0.00307074  0.74989964  0.25018090  1
  Co  Co104  1  0.25102253  0.49630692  0.00014132  1
  Co  Co105  1  0.62475309  0.12723217  0.62375845  1
  Co  Co106  1  0.25068099  0.50760285  0.25072433  1
  Co  Co107  1  0.87337484  0.37601446  0.37513989  1
  Co  Co108  1  0.87400706  0.87114841  0.12696806  1
  Co  Co109  1  -0.00282457  -0.00325898  0.00026891  1
  Co  Co110  1  0.62678655  0.38069489  0.87601375  1
  Co  Co111  1  0.49695839  0.50265897  0.25252888  1
  Co  Co112  1  0.11987468  0.12299203  0.12447109  1
  Co  Co113  1  0.37524293  0.62478984  0.12054497  1
  Co  Co114  1  0.62409464  0.12400546  0.87979925  1
  Co  Co115  1  0.25090017  0.49727393  0.50061906  1
  Co  Co116  1  0.37229354  0.62747439  0.37954432  1
  Co  Co117  1  0.12530208  0.62412156  0.87863452  1
  Co  Co118  1  0.12603957  0.87693436  0.62855611  1
  Co  Co119  1  0.87330544  0.37808183  0.87282730  1
  Co  Co120  1  0.50097833  0.75262165  0.49954844  1
  Co  Co121  1  0.87800191  0.12345977  0.37648295  1
  Co  Co122  1  0.49830562  0.25300244  0.49693508  1
  Co  Co123  1  0.62749337  0.37643040  0.37353858  1
  Co  Co124  1  0.75213302  0.49899175  0.00587133  1
  Co  Co125  1  0.87720961  0.62675219  0.37591021  1
  Co  Co126  1  0.00274126  0.25437657  -0.00152461  1
  Co  Co127  1  0.37240850  0.37402274  0.87215704  1
