# generated using pymatgen
data_Fe45Co19
_symmetry_space_group_name_H-M   'P 1'
_cell_length_a   11.41485952
_cell_length_b   11.41411109
_cell_length_c   11.41553435
_cell_angle_alpha   90.00317591
_cell_angle_beta   89.99943433
_cell_angle_gamma   89.99416696
_symmetry_Int_Tables_number   1
_chemical_formula_structural   Fe45Co19
_chemical_formula_sum   'Fe90 Co38'
_cell_volume   1487.33537923
_cell_formula_units_Z   2
loop_
 _symmetry_equiv_pos_site_id
 _symmetry_equiv_pos_as_xyz
  1  'x, y, z'
loop_
 _atom_site_type_symbol
 _atom_site_label
 _atom_site_symmetry_multiplicity
 _atom_site_fract_x
 _atom_site_fract_y
 _atom_site_fract_z
 _atom_site_occupancy
  Fe  Fe0  1  0.12860009  0.37416096  0.61953970  1
  Fe  Fe1  1  0.24892749  0.00133999  0.49798172  1
  Fe  Fe2  1  0.37241862  0.87179808  0.87448035  1
  Fe  Fe3  1  0.24687953  0.50190090  -0.00018411  1
  Fe  Fe4  1  0.62500969  0.37578095  0.37452022  1
  Fe  Fe5  1  0.25046760  0.50155221  0.74878739  1
  Fe  Fe6  1  0.12480150  0.12205094  0.12677667  1
  Fe  Fe7  1  0.12544070  0.12457030  0.87381415  1
  Fe  Fe8  1  0.75055651  -0.00121228  -0.00200206  1
  Fe  Fe9  1  0.50123014  0.25391520  0.74958699  1
  Fe  Fe10  1  0.37105245  0.87227639  0.12557530  1
  Fe  Fe11  1  0.00110716  0.50304203  0.25269141  1
  Fe  Fe12  1  -0.00170498  0.24730093  0.50322388  1
  Fe  Fe13  1  0.00151476  0.25175493  0.74915198  1
  Fe  Fe14  1  0.62700010  0.87464794  0.37395165  1
  Fe  Fe15  1  0.75009953  0.50270433  -0.00046900  1
  Fe  Fe16  1  0.75106678  0.00009542  0.24964232  1
  Fe  Fe17  1  0.87550141  0.12290524  0.37739908  1
  Fe  Fe18  1  0.25034357  0.25038994  0.74937449  1
  Fe  Fe19  1  0.24878765  0.24937312  0.00175355  1
  Fe  Fe20  1  0.62723532  0.62620419  0.37251208  1
  Fe  Fe21  1  0.00205958  0.74948103  0.74848077  1
  Fe  Fe22  1  0.37602629  0.12492908  0.87564120  1
  Fe  Fe23  1  0.87810703  0.87295835  0.87760199  1
  Fe  Fe24  1  0.50002154  -0.00182612  0.00256770  1
  Fe  Fe25  1  0.75189929  0.74887493  0.75154444  1
  Fe  Fe26  1  0.75121064  0.74908408  0.49931626  1
  Fe  Fe27  1  0.62613119  0.87359766  0.62557755  1
  Fe  Fe28  1  0.37262037  0.37610500  0.12825817  1
  Fe  Fe29  1  0.24990554  0.25208858  0.25429343  1
  Fe  Fe30  1  0.24727448  -0.00270361  -0.00019836  1
  Fe  Fe31  1  0.12538046  0.37558146  0.12730508  1
  Fe  Fe32  1  0.00753075  0.75201960  0.00354896  1
  Fe  Fe33  1  0.50083325  0.74955962  0.50052746  1
  Fe  Fe34  1  0.37459371  0.87396142  0.62405120  1
  Fe  Fe35  1  0.37365197  0.37442152  0.87677807  1
  Fe  Fe36  1  0.24572616  0.49913889  0.25866500  1
  Fe  Fe37  1  0.50025726  0.25076890  0.00351619  1
  Fe  Fe38  1  0.87469160  0.87651846  0.62405465  1
  Fe  Fe39  1  0.62592832  0.37635251  0.12477322  1
  Fe  Fe40  1  0.12143844  0.87344662  0.37298484  1
  Fe  Fe41  1  0.62337534  0.12566213  0.87666353  1
  Fe  Fe42  1  0.25042229  -0.00091457  0.74966760  1
  Fe  Fe43  1  0.00103788  0.49750411  0.74969256  1
  Fe  Fe44  1  0.75191025  0.50423375  0.24771750  1
  Fe  Fe45  1  0.37317519  0.37695387  0.61998243  1
  Fe  Fe46  1  0.62797412  0.12777195  0.62337225  1
  Fe  Fe47  1  0.50112252  0.25047021  0.49827058  1
  Fe  Fe48  1  0.12234128  0.12570369  0.37602739  1
  Fe  Fe49  1  0.50126396  -0.00089065  0.50111227  1
  Fe  Fe50  1  -0.00623703  0.74905355  0.24866597  1
  Fe  Fe51  1  0.37639590  0.12445622  0.12820883  1
  Fe  Fe52  1  0.12547610  0.62343288  0.62131236  1
  Fe  Fe53  1  0.50059335  0.00019582  0.74883401  1
  Fe  Fe54  1  0.12452298  0.87691566  0.62416339  1
  Fe  Fe55  1  0.74948546  0.25142528  0.00022700  1
  Fe  Fe56  1  -0.00049218  0.00215583  0.74812593  1
  Fe  Fe57  1  0.75151948  0.49955695  0.50019286  1
  Fe  Fe58  1  0.49827773  0.50196450  0.00080734  1
  Fe  Fe59  1  0.37027998  0.62843584  0.87388042  1
  Fe  Fe60  1  0.74870011  0.24822299  0.25154744  1
  Fe  Fe61  1  0.62385173  0.62213943  0.87189669  1
  Fe  Fe62  1  0.87895759  0.62454848  0.87655437  1
  Fe  Fe63  1  0.87549329  0.12274451  0.12281329  1
  Fe  Fe64  1  0.37457667  0.62632707  0.37570321  1
  Fe  Fe65  1  0.37374025  0.12547257  0.62445186  1
  Fe  Fe66  1  0.87648316  0.37642239  0.12500908  1
  Fe  Fe67  1  0.49996478  0.50028899  0.24924806  1
  Fe  Fe68  1  0.49789143  0.74842999  0.74759705  1
  Fe  Fe69  1  0.74700392  0.25534625  0.75146514  1
  Fe  Fe70  1  0.00441606  0.49903644  -0.00054095  1
  Fe  Fe71  1  0.75123241  0.00085201  0.50092687  1
  Fe  Fe72  1  0.87284851  0.37470861  0.62423865  1
  Fe  Fe73  1  0.25055053  0.74974606  0.49891989  1
  Fe  Fe74  1  0.87574019  0.12734719  0.87381300  1
  Fe  Fe75  1  -0.00386706  0.75066476  0.49934942  1
  Fe  Fe76  1  0.49987424  0.50175740  0.50012143  1
  Fe  Fe77  1  0.87725653  0.37628485  0.37473605  1
  Fe  Fe78  1  0.49874878  0.75186777  0.25066770  1
  Fe  Fe79  1  0.75030234  -0.00101033  0.75101137  1
  Fe  Fe80  1  0.62999012  0.87020983  0.12544611  1
  Fe  Fe81  1  0.00216866  0.25061697  -0.00006309  1
  Fe  Fe82  1  -0.00079486  0.24844949  0.24902848  1
  Fe  Fe83  1  0.87460523  0.62324192  0.62464176  1
  Fe  Fe84  1  0.62570927  0.62180879  0.62828284  1
  Fe  Fe85  1  0.62395953  0.87309088  0.87418070  1
  Fe  Fe86  1  0.37037071  0.62578718  0.12718700  1
  Fe  Fe87  1  0.25046602  -0.00190506  0.25272407  1
  Fe  Fe88  1  0.38110467  0.12349394  0.37167461  1
  Fe  Fe89  1  0.49986989  0.74810245  0.00074198  1
  Co  Co90  1  0.37360803  0.62456859  0.62236962  1
  Co  Co91  1  0.50189207  -0.00554642  0.24600175  1
  Co  Co92  1  0.87457386  0.62290431  0.37770709  1
  Co  Co93  1  0.37850212  0.37534635  0.37499020  1
  Co  Co94  1  0.00230454  -0.00028731  -0.00038945  1
  Co  Co95  1  -0.00036892  0.49963956  0.50009921  1
  Co  Co96  1  0.12112718  0.63013847  0.37665871  1
  Co  Co97  1  0.11935619  0.37107689  0.37900597  1
  Co  Co98  1  0.50294243  0.25164842  0.24811992  1
  Co  Co99  1  0.62305252  0.37859225  0.87784159  1
  Co  Co100  1  0.62265328  0.12224300  0.37488608  1
  Co  Co101  1  0.12762726  0.37456651  0.87468685  1
  Co  Co102  1  0.87446221  0.87698967  0.37618097  1
  Co  Co103  1  0.62415456  0.62752366  0.12731041  1
  Co  Co104  1  0.74897389  0.74638212  -0.00241805  1
  Co  Co105  1  0.62570263  0.12377389  0.12497614  1
  Co  Co106  1  0.12679180  0.62414304  0.12961480  1
  Co  Co107  1  -0.00295742  0.00056781  0.25043513  1
  Co  Co108  1  0.87094545  0.12652380  0.62698299  1
  Co  Co109  1  0.37612947  0.87587936  0.37706418  1
  Co  Co110  1  0.25093458  0.74997783  0.25237159  1
  Co  Co111  1  0.12756881  0.12600580  0.62524703  1
  Co  Co112  1  0.24828464  0.50105625  0.49329241  1
  Co  Co113  1  0.87419485  0.87545215  0.12162121  1
  Co  Co114  1  0.12414950  0.87715275  0.13176053  1
  Co  Co115  1  0.62472988  0.37778608  0.62282557  1
  Co  Co116  1  0.25286139  0.24757638  0.49464018  1
  Co  Co117  1  0.75340813  0.49861430  0.75157990  1
  Co  Co118  1  0.49476966  0.49842699  0.75003031  1
  Co  Co119  1  0.87744619  0.62469887  0.11979490  1
  Co  Co120  1  0.75057078  0.25139728  0.49594757  1
  Co  Co121  1  0.24774023  0.74969258  0.74617514  1
  Co  Co122  1  0.12504109  0.87559814  0.87127491  1
  Co  Co123  1  0.75667226  0.74736804  0.25048830  1
  Co  Co124  1  0.12521589  0.62565571  0.87232279  1
  Co  Co125  1  0.00029298  0.00150579  0.50188056  1
  Co  Co126  1  0.87637521  0.37509132  0.87724669  1
  Co  Co127  1  0.24298794  0.75117925  0.00168240  1
