# generated using pymatgen
data_Fe45Co19
_symmetry_space_group_name_H-M   'P 1'
_cell_length_a   11.41541257
_cell_length_b   11.41533527
_cell_length_c   11.41396833
_cell_angle_alpha   89.99483523
_cell_angle_beta   90.00086275
_cell_angle_gamma   89.99715386
_symmetry_Int_Tables_number   1
_chemical_formula_structural   Fe45Co19
_chemical_formula_sum   'Fe90 Co38'
_cell_volume   1487.36290099
_cell_formula_units_Z   2
loop_
 _symmetry_equiv_pos_site_id
 _symmetry_equiv_pos_as_xyz
  1  'x, y, z'
loop_
 _atom_site_type_symbol
 _atom_site_label
 _atom_site_symmetry_multiplicity
 _atom_site_fract_x
 _atom_site_fract_y
 _atom_site_fract_z
 _atom_site_occupancy
  Fe  Fe0  1  0.50159719  0.49859774  0.75059763  1
  Fe  Fe1  1  -0.00129736  -0.00308131  0.75174613  1
  Fe  Fe2  1  0.25096682  -0.00183965  0.75013384  1
  Fe  Fe3  1  0.37501288  0.87607406  0.37524990  1
  Fe  Fe4  1  0.37257147  0.62238683  0.37450062  1
  Fe  Fe5  1  0.37803937  0.37704983  0.62135806  1
  Fe  Fe6  1  0.37565851  0.12622897  0.37204838  1
  Fe  Fe7  1  0.62688002  0.37889145  0.12197919  1
  Fe  Fe8  1  0.12612048  0.87390315  0.62387995  1
  Fe  Fe9  1  0.87199146  0.12457189  0.62404578  1
  Fe  Fe10  1  0.63015779  0.12584221  0.37460456  1
  Fe  Fe11  1  0.12400694  0.62775544  0.62359919  1
  Fe  Fe12  1  -0.00051569  0.25011097  0.75086055  1
  Fe  Fe13  1  0.12697641  0.62640841  0.87446922  1
  Fe  Fe14  1  0.62332523  0.87251940  0.12747530  1
  Fe  Fe15  1  0.74854682  0.74767777  0.00116917  1
  Fe  Fe16  1  0.24357380  0.49705581  0.25453290  1
  Fe  Fe17  1  -0.00178988  0.00207419  0.25033631  1
  Fe  Fe18  1  0.12457946  0.12733688  0.37478431  1
  Fe  Fe19  1  0.50067384  0.00125762  0.75057559  1
  Fe  Fe20  1  0.25070128  0.25083291  0.74838547  1
  Fe  Fe21  1  0.62479819  0.62454857  0.62370830  1
  Fe  Fe22  1  -0.00181277  -0.00001154  0.49919934  1
  Fe  Fe23  1  0.87566140  0.37599401  0.62536298  1
  Fe  Fe24  1  0.87581782  0.87409595  0.12458508  1
  Fe  Fe25  1  0.75035672  -0.00042715  0.00237753  1
  Fe  Fe26  1  0.74996984  0.75040300  0.49928547  1
  Fe  Fe27  1  -0.00015446  0.74913799  0.25286471  1
  Fe  Fe28  1  0.25099942  0.49914295  -0.00054450  1
  Fe  Fe29  1  0.87360252  0.87195121  0.62679616  1
  Fe  Fe30  1  0.50153234  0.25213823  -0.00131042  1
  Fe  Fe31  1  0.37571322  0.12326693  0.62429331  1
  Fe  Fe32  1  0.62429772  0.37379426  0.37625137  1
  Fe  Fe33  1  0.37563048  0.62595060  0.87507789  1
  Fe  Fe34  1  0.62551030  0.87455138  0.87657803  1
  Fe  Fe35  1  0.62340617  0.12467433  0.12625290  1
  Fe  Fe36  1  0.37729736  0.12487195  0.12745499  1
  Fe  Fe37  1  0.25385100  0.75008747  0.00411959  1
  Fe  Fe38  1  0.62284816  0.87412971  0.62366168  1
  Fe  Fe39  1  0.12641850  0.62502965  0.12735138  1
  Fe  Fe40  1  0.87491440  0.62452388  0.37485692  1
  Fe  Fe41  1  0.25056706  -0.00061214  0.25017089  1
  Fe  Fe42  1  0.87414153  0.12742835  0.12715843  1
  Fe  Fe43  1  0.25164947  0.25012497  0.49955458  1
  Fe  Fe44  1  0.87479443  0.12303774  0.87638863  1
  Fe  Fe45  1  0.37640222  0.37403125  0.87401103  1
  Fe  Fe46  1  0.87757594  0.37289848  0.37030234  1
  Fe  Fe47  1  0.24944043  0.50036775  0.74790359  1
  Fe  Fe48  1  0.12570265  0.12588346  0.12545544  1
  Fe  Fe49  1  0.12375965  0.12477647  0.87492008  1
  Fe  Fe50  1  0.37570676  0.87329788  0.87623465  1
  Fe  Fe51  1  0.50165673  0.00171133  0.49718367  1
  Fe  Fe52  1  0.49785480  0.74701032  0.49956171  1
  Fe  Fe53  1  0.75059186  0.50031410  0.24851534  1
  Fe  Fe54  1  0.62272135  0.37338443  0.62276883  1
  Fe  Fe55  1  0.37374605  0.37523292  0.12702353  1
  Fe  Fe56  1  0.87268989  0.37746688  0.87502663  1
  Fe  Fe57  1  0.12445783  0.37507382  0.87556172  1
  Fe  Fe58  1  0.62631086  0.12719184  0.62333132  1
  Fe  Fe59  1  -0.00360464  0.24712059  0.49914755  1
  Fe  Fe60  1  0.49504727  0.74845035  0.24558524  1
  Fe  Fe61  1  0.12532032  0.12381685  0.62490056  1
  Fe  Fe62  1  0.62589426  0.87320791  0.37211927  1
  Fe  Fe63  1  0.62608458  0.62689308  0.37170264  1
  Fe  Fe64  1  0.12562495  0.87451015  0.87653017  1
  Fe  Fe65  1  0.25413910  0.74885915  0.50327593  1
  Fe  Fe66  1  0.87248598  0.62594318  0.87152984  1
  Fe  Fe67  1  0.25000839  0.00110730  0.00074700  1
  Fe  Fe68  1  0.00064877  0.50162370  0.75030660  1
  Fe  Fe69  1  0.49922902  0.74939713  0.74975338  1
  Fe  Fe70  1  -0.00056077  0.74969983  -0.00207328  1
  Fe  Fe71  1  0.87553652  0.62480168  0.12777041  1
  Fe  Fe72  1  0.74857829  0.25116490  -0.00082084  1
  Fe  Fe73  1  -0.00182441  0.49966535  0.00224427  1
  Fe  Fe74  1  0.12490923  0.87455324  0.12579447  1
  Fe  Fe75  1  0.24992514  0.24986602  0.00096931  1
  Fe  Fe76  1  0.00280056  0.50153338  0.49613779  1
  Fe  Fe77  1  0.50080767  0.49976828  0.24918979  1
  Fe  Fe78  1  0.00019934  0.25179968  0.00179561  1
  Fe  Fe79  1  0.74961218  0.49882933  0.49977225  1
  Fe  Fe80  1  0.74724762  0.25178453  0.75213001  1
  Fe  Fe81  1  0.12669464  0.87265769  0.37551330  1
  Fe  Fe82  1  0.62491135  0.62142145  0.87817889  1
  Fe  Fe83  1  0.74914218  -0.00134608  0.75027376  1
  Fe  Fe84  1  0.37677786  0.12601420  0.87469655  1
  Fe  Fe85  1  0.37634793  0.37538395  0.37661099  1
  Fe  Fe86  1  0.87225406  0.87716599  0.37429730  1
  Fe  Fe87  1  0.50045825  -0.00099374  0.00048181  1
  Fe  Fe88  1  0.87501176  0.62686530  0.62549927  1
  Fe  Fe89  1  0.12383863  0.37444205  0.62267043  1
  Co  Co90  1  0.00173996  0.24945156  0.24736092  1
  Co  Co91  1  0.50318632  0.50283977  0.49729526  1
  Co  Co92  1  0.12179147  0.36970063  0.37763008  1
  Co  Co93  1  0.74647256  0.74910935  0.75033634  1
  Co  Co94  1  0.74652862  0.25176754  0.24886244  1
  Co  Co95  1  0.00114556  0.75131167  0.75239121  1
  Co  Co96  1  0.87444914  0.37452209  0.12762495  1
  Co  Co97  1  0.74942655  -0.00326482  0.50055718  1
  Co  Co98  1  0.87217096  0.87449140  0.87660248  1
  Co  Co99  1  0.75398775  0.50303906  0.00247932  1
  Co  Co100  1  0.62524460  0.12317458  0.87607062  1
  Co  Co101  1  0.50165170  0.00012777  0.25252060  1
  Co  Co102  1  0.74836614  0.49952791  0.74647820  1
  Co  Co103  1  0.49852265  0.74771723  0.00396444  1
  Co  Co104  1  0.37718108  0.62066319  0.62513063  1
  Co  Co105  1  0.37800031  0.87833416  0.62337795  1
  Co  Co106  1  0.50257225  0.25182693  0.24944394  1
  Co  Co107  1  0.00367182  0.50124877  0.25101506  1
  Co  Co108  1  0.37136054  0.61959952  0.12775372  1
  Co  Co109  1  -0.00052739  -0.00018390  0.00143624  1
  Co  Co110  1  -0.00273542  0.75161403  0.49817486  1
  Co  Co111  1  0.12543941  0.37591595  0.12352119  1
  Co  Co112  1  0.24658155  0.50011201  0.49909171  1
  Co  Co113  1  0.74987362  -0.00054675  0.24737488  1
  Co  Co114  1  0.75181514  0.25372241  0.49937785  1
  Co  Co115  1  0.75240168  0.75012631  0.24917948  1
  Co  Co116  1  0.25023871  0.25124186  0.25050539  1
  Co  Co117  1  0.12695832  0.63066746  0.37601688  1
  Co  Co118  1  0.62621739  0.37943067  0.87799855  1
  Co  Co119  1  0.37576789  0.87949805  0.12484087  1
  Co  Co120  1  0.50159593  0.24992132  0.75086727  1
  Co  Co121  1  0.25005711  0.00069125  0.49797175  1
  Co  Co122  1  0.25328261  0.75182285  0.24797763  1
  Co  Co123  1  0.25212852  0.75013541  0.74751128  1
  Co  Co124  1  0.87103820  0.12549403  0.37362283  1
  Co  Co125  1  0.49972097  0.24689514  0.49745192  1
  Co  Co126  1  0.62446852  0.62373140  0.12630442  1
  Co  Co127  1  0.49645652  0.50038800  0.00152229  1
