# generated using pymatgen
data_Fe45Co19
_symmetry_space_group_name_H-M   'P 1'
_cell_length_a   11.41461236
_cell_length_b   11.41389086
_cell_length_c   11.41393780
_cell_angle_alpha   89.99658834
_cell_angle_beta   90.00109556
_cell_angle_gamma   90.00305092
_symmetry_Int_Tables_number   1
_chemical_formula_structural   Fe45Co19
_chemical_formula_sum   'Fe90 Co38'
_cell_volume   1487.06647482
_cell_formula_units_Z   2
loop_
 _symmetry_equiv_pos_site_id
 _symmetry_equiv_pos_as_xyz
  1  'x, y, z'
loop_
 _atom_site_type_symbol
 _atom_site_label
 _atom_site_symmetry_multiplicity
 _atom_site_fract_x
 _atom_site_fract_y
 _atom_site_fract_z
 _atom_site_occupancy
  Fe  Fe0  1  0.49945098  0.24828701  0.50194400  1
  Fe  Fe1  1  0.12701421  0.62960384  0.62041837  1
  Fe  Fe2  1  0.74802377  0.24698732  0.24866689  1
  Fe  Fe3  1  -0.00151332  0.24986993  0.50376839  1
  Fe  Fe4  1  0.37188763  0.87926326  0.12809442  1
  Fe  Fe5  1  0.74840643  0.75077773  0.75129412  1
  Fe  Fe6  1  0.25046831  0.50149196  -0.00028805  1
  Fe  Fe7  1  0.37810787  0.12160878  0.37354192  1
  Fe  Fe8  1  0.62557702  0.87555692  0.87442666  1
  Fe  Fe9  1  0.75174977  0.00221378  -0.00706229  1
  Fe  Fe10  1  0.37405595  0.37535225  0.62683808  1
  Fe  Fe11  1  0.00099398  0.75286821  0.74668837  1
  Fe  Fe12  1  0.87440972  0.87450020  0.37393537  1
  Fe  Fe13  1  0.37869989  0.12414216  0.87509140  1
  Fe  Fe14  1  0.75066434  0.25083290  0.50059995  1
  Fe  Fe15  1  0.87559026  0.62525010  0.12453813  1
  Fe  Fe16  1  0.87172953  0.87646252  0.12427175  1
  Fe  Fe17  1  0.50258706  0.75227981  0.24617898  1
  Fe  Fe18  1  0.24909479  0.50266739  0.75028067  1
  Fe  Fe19  1  0.87306391  0.37482053  0.12385767  1
  Fe  Fe20  1  0.00283393  -0.00325123  0.24858027  1
  Fe  Fe21  1  0.87729189  0.62757206  0.37490171  1
  Fe  Fe22  1  0.12349783  0.87785364  0.87294806  1
  Fe  Fe23  1  0.62345919  0.62600880  0.37628568  1
  Fe  Fe24  1  0.37393101  0.37527123  0.87328404  1
  Fe  Fe25  1  0.75055747  0.24597317  0.75522431  1
  Fe  Fe26  1  0.25193290  0.00002016  -0.00389190  1
  Fe  Fe27  1  0.74913361  0.49916290  0.50100396  1
  Fe  Fe28  1  0.25201389  0.24708842  0.50098623  1
  Fe  Fe29  1  0.24873298  0.50566140  0.25115520  1
  Fe  Fe30  1  0.75011755  0.74958373  -0.00272525  1
  Fe  Fe31  1  0.62413635  0.37290404  0.37543772  1
  Fe  Fe32  1  0.00218201  0.50226100  0.25069724  1
  Fe  Fe33  1  0.87276072  0.62350728  0.62837328  1
  Fe  Fe34  1  0.62377947  0.62409638  0.62797595  1
  Fe  Fe35  1  0.50048069  -0.00119438  0.75015579  1
  Fe  Fe36  1  0.62501161  0.62610831  0.12178834  1
  Fe  Fe37  1  0.74857907  0.75017637  0.24975380  1
  Fe  Fe38  1  0.12662625  0.12226107  0.12365664  1
  Fe  Fe39  1  0.12477198  0.62730765  0.87679918  1
  Fe  Fe40  1  0.25226281  -0.00103470  0.49986079  1
  Fe  Fe41  1  0.49979531  0.75166318  0.74928662  1
  Fe  Fe42  1  0.62662494  0.37256893  0.12005349  1
  Fe  Fe43  1  0.74836833  0.50061159  0.25025814  1
  Fe  Fe44  1  -0.00119636  0.25061312  -0.00026028  1
  Fe  Fe45  1  0.87486130  0.12380156  0.37598111  1
  Fe  Fe46  1  0.00022504  0.24929532  0.24944931  1
  Fe  Fe47  1  0.37776097  0.87656056  0.37239642  1
  Fe  Fe48  1  0.50167494  0.50085064  0.24825917  1
  Fe  Fe49  1  0.24946968  0.24646300  0.75086456  1
  Fe  Fe50  1  0.37574763  0.37524102  0.37407869  1
  Fe  Fe51  1  0.12309238  0.37403171  0.87244156  1
  Fe  Fe52  1  0.50052970  0.25170788  0.75035610  1
  Fe  Fe53  1  0.49920743  0.50018074  0.50310090  1
  Fe  Fe54  1  0.24827661  0.74600352  0.24965510  1
  Fe  Fe55  1  0.24968109  0.75109337  0.74983801  1
  Fe  Fe56  1  -0.00059015  0.50066760  0.50221437  1
  Fe  Fe57  1  0.50068680  0.49926323  -0.00365544  1
  Fe  Fe58  1  0.12397451  0.86924312  0.37845874  1
  Fe  Fe59  1  0.87582065  0.12295588  0.12339487  1
  Fe  Fe60  1  -0.00131214  -0.00314886  0.50380753  1
  Fe  Fe61  1  0.74929566  0.75014655  0.50099058  1
  Fe  Fe62  1  0.62302129  0.87585680  0.37711240  1
  Fe  Fe63  1  0.25114816  0.24727483  0.24969908  1
  Fe  Fe64  1  0.37297602  0.87702677  0.62743011  1
  Fe  Fe65  1  0.87688555  0.62541168  0.87208960  1
  Fe  Fe66  1  0.49779741  0.75070754  0.50303855  1
  Fe  Fe67  1  0.74718011  -0.00027313  0.50069633  1
  Fe  Fe68  1  0.74973087  0.50011294  -0.00601967  1
  Fe  Fe69  1  0.12612616  0.37459288  0.37635120  1
  Fe  Fe70  1  -0.00031049  0.49898676  -0.00274589  1
  Fe  Fe71  1  0.86988249  0.87740886  0.62845223  1
  Fe  Fe72  1  0.12319874  0.12537331  0.37723752  1
  Fe  Fe73  1  0.50028929  0.24609426  0.24694449  1
  Fe  Fe74  1  0.62189290  0.12350051  0.11709628  1
  Fe  Fe75  1  0.49905888  0.75453006  0.00136478  1
  Fe  Fe76  1  0.87405241  0.37665329  0.63192556  1
  Fe  Fe77  1  0.12709203  0.37465598  0.62562942  1
  Fe  Fe78  1  0.12021043  0.12190503  0.87365628  1
  Fe  Fe79  1  0.12553028  0.12075992  0.62725010  1
  Fe  Fe80  1  0.37657646  0.62673001  0.87397613  1
  Fe  Fe81  1  0.74525279  0.00141323  0.25065144  1
  Fe  Fe82  1  0.25334342  0.50476349  0.49791218  1
  Fe  Fe83  1  0.25124496  0.75108783  0.00067044  1
  Fe  Fe84  1  0.87484306  0.37387640  0.37387706  1
  Fe  Fe85  1  0.12648510  0.37546853  0.12495388  1
  Fe  Fe86  1  0.25178874  0.24795028  -0.00096482  1
  Fe  Fe87  1  0.62585376  0.12353393  0.62611983  1
  Fe  Fe88  1  0.37370442  0.37573197  0.12525986  1
  Fe  Fe89  1  0.00027506  0.75410096  0.00234033  1
  Co  Co90  1  0.37474309  0.87351042  0.87211588  1
  Co  Co91  1  0.12945918  0.87622367  0.62525337  1
  Co  Co92  1  0.00016202  0.75253516  0.24510056  1
  Co  Co93  1  0.62610236  0.37309437  0.62643250  1
  Co  Co94  1  0.62978361  0.87686373  0.12090305  1
  Co  Co95  1  0.24553253  0.00024258  0.25454193  1
  Co  Co96  1  0.74488335  0.49998516  0.75478504  1
  Co  Co97  1  0.49485672  0.25202447  0.00099221  1
  Co  Co98  1  0.00496111  0.50355166  0.74855691  1
  Co  Co99  1  0.25765244  0.75062301  0.49936598  1
  Co  Co100  1  0.37564398  0.12437137  0.62715504  1
  Co  Co101  1  0.12116303  0.63066032  0.37959641  1
  Co  Co102  1  0.49931138  -0.00067500  0.50327971  1
  Co  Co103  1  0.61856337  0.12490890  0.87772422  1
  Co  Co104  1  0.75416116  0.24715342  -0.00417056  1
  Co  Co105  1  -0.00587229  0.75334709  0.50583265  1
  Co  Co106  1  0.87568919  0.87337726  0.87445454  1
  Co  Co107  1  0.62453874  0.12524592  0.37867435  1
  Co  Co108  1  0.12365091  0.62466698  0.12199476  1
  Co  Co109  1  0.25220121  0.00158217  0.75242180  1
  Co  Co110  1  0.50529093  0.00066333  0.24796097  1
  Co  Co111  1  0.37587423  0.62546176  0.63008625  1
  Co  Co112  1  -0.00047244  -0.00328623  0.00185577  1
  Co  Co113  1  0.62608440  0.87598885  0.62698087  1
  Co  Co114  1  0.00094117  0.24799259  0.74694070  1
  Co  Co115  1  0.50213729  0.49781646  0.75215139  1
  Co  Co116  1  0.88233908  0.12457525  0.87417098  1
  Co  Co117  1  0.74957324  0.00254688  0.75568720  1
  Co  Co118  1  0.62166518  0.62968133  0.87464011  1
  Co  Co119  1  0.87188776  0.12344834  0.62427770  1
  Co  Co120  1  -0.00361819  -0.00295011  0.74678512  1
  Co  Co121  1  0.87744956  0.37508848  0.87064118  1
  Co  Co122  1  0.37959694  0.62623513  0.37226556  1
  Co  Co123  1  0.12978954  0.87660574  0.12340078  1
  Co  Co124  1  0.62567971  0.37019460  0.87742734  1
  Co  Co125  1  0.49651622  -0.00611945  -0.00091689  1
  Co  Co126  1  0.37367809  0.12002701  0.12517391  1
  Co  Co127  1  0.37712027  0.62551495  0.12315066  1
