# generated using pymatgen
data_Fe45Co19
_symmetry_space_group_name_H-M   'P 1'
_cell_length_a   11.41476936
_cell_length_b   11.41535116
_cell_length_c   11.41525577
_cell_angle_alpha   89.99874867
_cell_angle_beta   89.99730762
_cell_angle_gamma   90.00207373
_symmetry_Int_Tables_number   1
_chemical_formula_structural   Fe45Co19
_chemical_formula_sum   'Fe90 Co38'
_cell_volume   1487.44892667
_cell_formula_units_Z   2
loop_
 _symmetry_equiv_pos_site_id
 _symmetry_equiv_pos_as_xyz
  1  'x, y, z'
loop_
 _atom_site_type_symbol
 _atom_site_label
 _atom_site_symmetry_multiplicity
 _atom_site_fract_x
 _atom_site_fract_y
 _atom_site_fract_z
 _atom_site_occupancy
  Fe  Fe0  1  0.74844437  0.75130672  -0.00263415  1
  Fe  Fe1  1  0.87591137  0.37386333  0.62452228  1
  Fe  Fe2  1  0.25180077  0.75005108  -0.00114591  1
  Fe  Fe3  1  0.75087309  0.25142069  0.75241850  1
  Fe  Fe4  1  0.25120131  0.24975382  -0.00374385  1
  Fe  Fe5  1  0.87397459  0.12377184  0.12073498  1
  Fe  Fe6  1  0.37455870  0.12496307  0.12444846  1
  Fe  Fe7  1  0.87768068  0.37543451  0.12228163  1
  Fe  Fe8  1  0.00225481  0.50151682  0.74693140  1
  Fe  Fe9  1  0.49777456  0.50146221  0.00262282  1
  Fe  Fe10  1  0.74861577  0.50209084  0.50171393  1
  Fe  Fe11  1  0.49794920  0.24910605  -0.00230033  1
  Fe  Fe12  1  0.12681244  0.37765150  0.87441412  1
  Fe  Fe13  1  0.87443801  0.12141832  0.87733404  1
  Fe  Fe14  1  0.25031345  0.75108951  0.25278705  1
  Fe  Fe15  1  0.62534343  0.37363271  0.12411495  1
  Fe  Fe16  1  0.37680210  0.37560531  0.37817495  1
  Fe  Fe17  1  0.87614451  0.62469464  0.37476117  1
  Fe  Fe18  1  0.00285208  0.50104936  0.50517618  1
  Fe  Fe19  1  0.37290143  0.37457905  0.12354948  1
  Fe  Fe20  1  0.62649585  0.12540776  0.12541218  1
  Fe  Fe21  1  0.87284069  0.12325718  0.62536426  1
  Fe  Fe22  1  0.12520110  0.12604728  0.12331718  1
  Fe  Fe23  1  0.37402881  0.62268353  0.37328999  1
  Fe  Fe24  1  -0.00076183  0.24840117  0.75148257  1
  Fe  Fe25  1  0.62169542  0.87645253  0.87471334  1
  Fe  Fe26  1  0.24955429  -0.00015391  0.25161088  1
  Fe  Fe27  1  0.49760780  0.74852025  -0.00159007  1
  Fe  Fe28  1  0.37795670  0.87655702  0.37642269  1
  Fe  Fe29  1  0.87756160  0.87535459  0.37574821  1
  Fe  Fe30  1  0.87806462  0.37337456  0.37716348  1
  Fe  Fe31  1  0.49953048  0.00131935  0.00267581  1
  Fe  Fe32  1  0.75082257  0.49920967  0.25041273  1
  Fe  Fe33  1  0.00027828  0.74925833  0.50066476  1
  Fe  Fe34  1  0.37615401  0.87402183  0.12689401  1
  Fe  Fe35  1  0.24805330  0.49757035  0.24849234  1
  Fe  Fe36  1  0.25468522  0.25159696  0.75160375  1
  Fe  Fe37  1  0.87196322  0.62454983  0.87153794  1
  Fe  Fe38  1  0.49646974  0.00274645  0.74482714  1
  Fe  Fe39  1  0.74910764  -0.00230507  0.75046240  1
  Fe  Fe40  1  0.50166147  0.50267682  0.50185965  1
  Fe  Fe41  1  0.12394007  0.62670438  0.37544731  1
  Fe  Fe42  1  0.12807124  0.87856573  0.87449100  1
  Fe  Fe43  1  0.00309972  -0.00040352  0.74928436  1
  Fe  Fe44  1  0.49947928  0.50102898  0.74751238  1
  Fe  Fe45  1  0.12811594  0.86814125  0.62675996  1
  Fe  Fe46  1  0.87552974  0.37790335  0.87537544  1
  Fe  Fe47  1  0.49882279  0.50002197  0.24811424  1
  Fe  Fe48  1  0.12381817  0.87441098  0.12575671  1
  Fe  Fe49  1  0.00239603  0.00271459  0.25103288  1
  Fe  Fe50  1  0.24832478  -0.00340658  0.50165015  1
  Fe  Fe51  1  0.24847697  0.25090182  0.25078418  1
  Fe  Fe52  1  0.62277677  0.37632168  0.87486398  1
  Fe  Fe53  1  0.62375885  0.87664713  0.37531605  1
  Fe  Fe54  1  0.12745578  0.12836389  0.62604031  1
  Fe  Fe55  1  0.62247774  0.87397134  0.12720544  1
  Fe  Fe56  1  0.49842795  0.74879341  0.75053995  1
  Fe  Fe57  1  0.37365031  0.12544123  0.37783508  1
  Fe  Fe58  1  0.62316517  0.37328973  0.62509480  1
  Fe  Fe59  1  0.50314598  0.00619879  0.50187936  1
  Fe  Fe60  1  0.74752423  0.24763676  0.50028384  1
  Fe  Fe61  1  0.37061593  0.62685000  0.62492863  1
  Fe  Fe62  1  0.87678057  0.87515511  0.12451825  1
  Fe  Fe63  1  0.62545196  0.87307907  0.62328411  1
  Fe  Fe64  1  0.62478057  0.12417309  0.87433797  1
  Fe  Fe65  1  0.12551919  0.62463540  0.12395675  1
  Fe  Fe66  1  0.49520277  0.24816122  0.74894568  1
  Fe  Fe67  1  0.74953708  0.74966947  0.25321176  1
  Fe  Fe68  1  0.00126475  0.49839223  0.24839233  1
  Fe  Fe69  1  0.74894512  0.49997016  -0.00109291  1
  Fe  Fe70  1  0.87285171  0.87343801  0.62431335  1
  Fe  Fe71  1  0.37329121  0.88105107  0.87415166  1
  Fe  Fe72  1  0.87570731  0.62532970  0.12488125  1
  Fe  Fe73  1  0.62380410  0.37496779  0.37580982  1
  Fe  Fe74  1  0.00018757  0.74922970  -0.00227483  1
  Fe  Fe75  1  0.50116480  0.74619876  0.49850710  1
  Fe  Fe76  1  0.24966162  0.25372797  0.50095214  1
  Fe  Fe77  1  0.00343045  0.00049944  0.50160184  1
  Fe  Fe78  1  0.24590991  0.49906399  0.50398046  1
  Fe  Fe79  1  0.87601693  0.87696589  0.87603035  1
  Fe  Fe80  1  0.75014544  -0.00044305  0.25045190  1
  Fe  Fe81  1  0.12037043  0.37131368  0.37564115  1
  Fe  Fe82  1  0.87132923  0.62878877  0.62835231  1
  Fe  Fe83  1  0.12798885  0.62354744  0.87189429  1
  Fe  Fe84  1  0.00113444  0.24964842  -0.00196969  1
  Fe  Fe85  1  0.75240079  0.25118471  0.24933106  1
  Fe  Fe86  1  0.87639335  0.12531935  0.37699366  1
  Fe  Fe87  1  0.49857059  0.24905750  0.25200000  1
  Fe  Fe88  1  0.37283766  0.62054061  0.87454942  1
  Fe  Fe89  1  0.62346743  0.62744966  0.12608050  1
  Co  Co90  1  0.37392280  0.11950283  0.87508907  1
  Co  Co91  1  0.62497899  0.62191704  0.37231499  1
  Co  Co92  1  -0.00073666  0.24732158  0.50266127  1
  Co  Co93  1  0.37384338  0.62666397  0.12756099  1
  Co  Co94  1  0.25047005  -0.00028692  0.00378541  1
  Co  Co95  1  0.49825722  0.00272733  0.25002258  1
  Co  Co96  1  -0.00092420  0.24821707  0.24765142  1
  Co  Co97  1  0.00041758  0.50206619  -0.00186972  1
  Co  Co98  1  0.74666899  -0.00221928  -0.00023522  1
  Co  Co99  1  0.62653091  0.12584864  0.37064421  1
  Co  Co100  1  0.00046828  0.74861611  0.24903461  1
  Co  Co101  1  0.37548498  0.37948955  0.87541433  1
  Co  Co102  1  0.25172890  0.75069121  0.49563069  1
  Co  Co103  1  0.25473249  0.75194086  0.75332526  1
  Co  Co104  1  0.12803081  0.12268001  0.87362396  1
  Co  Co105  1  0.37759655  0.37503792  0.62195005  1
  Co  Co106  1  -0.00040070  0.75163363  0.75265224  1
  Co  Co107  1  0.37728452  0.87263019  0.62265518  1
  Co  Co108  1  0.12675436  0.12681903  0.37739184  1
  Co  Co109  1  0.37112870  0.12691751  0.62089666  1
  Co  Co110  1  0.12457650  0.37390667  0.12211523  1
  Co  Co111  1  0.74842935  0.00093447  0.49952802  1
  Co  Co112  1  0.12221647  0.87373173  0.37449905  1
  Co  Co113  1  0.62825261  0.62768332  0.62841938  1
  Co  Co114  1  0.25141330  0.50048019  0.00220507  1
  Co  Co115  1  0.50323129  0.24589379  0.50038990  1
  Co  Co116  1  0.74886723  0.49667677  0.74847203  1
  Co  Co117  1  0.74911676  0.74882868  0.49662208  1
  Co  Co118  1  0.62496970  0.62301834  0.87416087  1
  Co  Co119  1  0.24912887  0.49725724  0.74453272  1
  Co  Co120  1  0.74991948  0.25134959  -0.00228731  1
  Co  Co121  1  0.62855957  0.12608087  0.62962938  1
  Co  Co122  1  0.74752545  0.75430263  0.75311991  1
  Co  Co123  1  0.25120570  -0.00051779  0.74460718  1
  Co  Co124  1  0.49941497  0.74884960  0.25354738  1
  Co  Co125  1  0.12827669  0.63224229  0.62760740  1
  Co  Co126  1  0.12348732  0.37052076  0.62742646  1
  Co  Co127  1  0.00233389  -0.00067353  -0.00034926  1
