# generated using pymatgen
data_Fe45Co19
_symmetry_space_group_name_H-M   'P 1'
_cell_length_a   11.41503866
_cell_length_b   11.41420943
_cell_length_c   11.41616623
_cell_angle_alpha   90.00133242
_cell_angle_beta   89.99799406
_cell_angle_gamma   89.98938881
_symmetry_Int_Tables_number   1
_chemical_formula_structural   Fe45Co19
_chemical_formula_sum   'Fe90 Co38'
_cell_volume   1487.45384765
_cell_formula_units_Z   2
loop_
 _symmetry_equiv_pos_site_id
 _symmetry_equiv_pos_as_xyz
  1  'x, y, z'
loop_
 _atom_site_type_symbol
 _atom_site_label
 _atom_site_symmetry_multiplicity
 _atom_site_fract_x
 _atom_site_fract_y
 _atom_site_fract_z
 _atom_site_occupancy
  Fe  Fe0  1  0.62352351  0.37805513  0.37334828  1
  Fe  Fe1  1  0.62657260  0.87401590  0.37690699  1
  Fe  Fe2  1  0.62268413  0.12357869  0.87615960  1
  Fe  Fe3  1  0.24777176  0.25186898  0.50344769  1
  Fe  Fe4  1  0.25204610  -0.00082197  0.75420223  1
  Fe  Fe5  1  0.12519296  0.87495332  0.87796452  1
  Fe  Fe6  1  -0.00008112  0.74905020  0.24868489  1
  Fe  Fe7  1  0.87754502  0.12604504  0.87651262  1
  Fe  Fe8  1  0.12495478  0.62376346  0.37469712  1
  Fe  Fe9  1  -0.00377021  0.75193876  0.50171987  1
  Fe  Fe10  1  -0.00345576  0.50132115  0.00113718  1
  Fe  Fe11  1  0.62481872  0.87157964  0.87476966  1
  Fe  Fe12  1  0.24873682  0.25294801  0.24595068  1
  Fe  Fe13  1  0.00363467  0.24914191  0.74732982  1
  Fe  Fe14  1  0.74747226  0.00395517  0.25165491  1
  Fe  Fe15  1  0.37585241  0.12474717  0.12484520  1
  Fe  Fe16  1  0.62865596  0.37780875  0.12377629  1
  Fe  Fe17  1  0.12429409  0.12872172  0.37296014  1
  Fe  Fe18  1  0.87490388  0.62606949  0.37540861  1
  Fe  Fe19  1  0.25283125  0.50049985  -0.00056485  1
  Fe  Fe20  1  0.75204782  -0.00003717  -0.00251988  1
  Fe  Fe21  1  0.12613979  0.62538078  0.87618646  1
  Fe  Fe22  1  -0.00033875  -0.00043621  0.75325532  1
  Fe  Fe23  1  0.50194800  0.50273981  -0.00159434  1
  Fe  Fe24  1  0.87501255  0.37065029  0.37287058  1
  Fe  Fe25  1  0.12377446  0.87304640  0.37295409  1
  Fe  Fe26  1  0.62433369  0.37570174  0.62692953  1
  Fe  Fe27  1  0.50233066  0.24988367  0.00041528  1
  Fe  Fe28  1  0.24976420  0.00031859  0.49728240  1
  Fe  Fe29  1  0.37733321  0.62340518  0.37504477  1
  Fe  Fe30  1  0.00017800  0.75069757  0.74906566  1
  Fe  Fe31  1  0.24886305  0.25034111  0.00128070  1
  Fe  Fe32  1  0.74834441  0.24839237  0.75241958  1
  Fe  Fe33  1  0.37530323  0.12727734  0.37413418  1
  Fe  Fe34  1  0.75192439  0.75199773  0.74647577  1
  Fe  Fe35  1  0.25228579  0.49887701  0.24829139  1
  Fe  Fe36  1  0.50014184  0.74963653  0.24906934  1
  Fe  Fe37  1  0.62508237  0.62935053  0.62215107  1
  Fe  Fe38  1  0.50091253  0.00163741  0.25097873  1
  Fe  Fe39  1  0.25026128  0.75020697  0.49885158  1
  Fe  Fe40  1  0.24939407  -0.00191874  0.24867852  1
  Fe  Fe41  1  0.62485027  0.87744064  0.12584792  1
  Fe  Fe42  1  -0.00293750  0.49939358  0.24797275  1
  Fe  Fe43  1  0.37441691  0.87366938  0.37243381  1
  Fe  Fe44  1  0.74826740  0.50053859  0.75333803  1
  Fe  Fe45  1  0.37344756  0.12360232  0.62530504  1
  Fe  Fe46  1  0.25219745  -0.00236209  -0.00012998  1
  Fe  Fe47  1  0.86939657  0.37399151  0.12563628  1
  Fe  Fe48  1  -0.00009881  0.75042520  0.00101049  1
  Fe  Fe49  1  0.50014446  0.25075745  0.50206746  1
  Fe  Fe50  1  0.75292667  -0.00242035  0.49838411  1
  Fe  Fe51  1  0.49622440  -0.00416616  -0.00227817  1
  Fe  Fe52  1  0.37620621  0.62869241  0.62464421  1
  Fe  Fe53  1  0.24711981  0.24857208  0.74914055  1
  Fe  Fe54  1  0.37420781  0.62807205  0.12482140  1
  Fe  Fe55  1  0.12572489  0.62432443  0.12567150  1
  Fe  Fe56  1  0.49700755  -0.00518913  0.75070703  1
  Fe  Fe57  1  0.87287572  0.62758153  0.87481246  1
  Fe  Fe58  1  0.74971226  0.50077255  0.49947147  1
  Fe  Fe59  1  0.37840440  0.37535004  0.37374224  1
  Fe  Fe60  1  0.75067672  0.74899532  0.25118080  1
  Fe  Fe61  1  0.87446709  0.37531636  0.62557532  1
  Fe  Fe62  1  0.12319997  0.37484888  0.37414881  1
  Fe  Fe63  1  0.87652488  0.12849603  0.37327343  1
  Fe  Fe64  1  0.62506735  0.12075524  0.62387200  1
  Fe  Fe65  1  0.37722503  0.63390061  0.87533663  1
  Fe  Fe66  1  0.12567634  0.87703779  0.62431159  1
  Fe  Fe67  1  0.62878472  0.62179692  0.12598293  1
  Fe  Fe68  1  0.00251683  0.24867373  0.00384256  1
  Fe  Fe69  1  0.62336197  0.62516448  0.37682573  1
  Fe  Fe70  1  -0.00038427  0.00076466  0.49772437  1
  Fe  Fe71  1  0.25187486  0.50186080  0.75026106  1
  Fe  Fe72  1  0.74891857  0.24916545  0.49966810  1
  Fe  Fe73  1  0.87587548  0.12366021  0.62518162  1
  Fe  Fe74  1  0.50096577  0.50260733  0.75072966  1
  Fe  Fe75  1  0.74886904  0.74956486  0.00124247  1
  Fe  Fe76  1  0.12495852  0.37630934  0.87610580  1
  Fe  Fe77  1  0.49752056  -0.00378601  0.50120661  1
  Fe  Fe78  1  0.87210211  0.12629487  0.12512749  1
  Fe  Fe79  1  0.12360492  0.62328072  0.62417708  1
  Fe  Fe80  1  0.87453614  0.37282155  0.87619658  1
  Fe  Fe81  1  0.50093837  0.24800463  0.74982309  1
  Fe  Fe82  1  -0.00098854  0.50034963  0.75120096  1
  Fe  Fe83  1  0.50484840  0.24805333  0.24780524  1
  Fe  Fe84  1  -0.00195589  0.49800922  0.50040974  1
  Fe  Fe85  1  0.37678943  0.37346886  0.87406066  1
  Fe  Fe86  1  0.75069116  -0.00108054  0.75239449  1
  Fe  Fe87  1  0.87478410  0.87498415  0.12575696  1
  Fe  Fe88  1  0.25272670  0.49748985  0.50175070  1
  Fe  Fe89  1  0.00140449  0.00103886  0.24762407  1
  Co  Co90  1  0.37574179  0.87404279  0.12648114  1
  Co  Co91  1  0.74803925  0.24829579  -0.00251062  1
  Co  Co92  1  0.37809585  0.37413943  0.12311590  1
  Co  Co93  1  0.62291109  0.37431323  0.87537985  1
  Co  Co94  1  0.37444300  0.86616571  0.87618356  1
  Co  Co95  1  0.75491648  0.75130824  0.49984249  1
  Co  Co96  1  0.25035577  0.74921050  0.25075794  1
  Co  Co97  1  0.87466814  0.87206639  0.87629822  1
  Co  Co98  1  0.62385279  0.12134157  0.11946542  1
  Co  Co99  1  0.24775280  0.75142392  0.00283959  1
  Co  Co100  1  0.12475684  0.37931328  0.62653302  1
  Co  Co101  1  0.87641012  0.87820230  0.62651245  1
  Co  Co102  1  0.12426238  0.12418172  0.87759293  1
  Co  Co103  1  0.49756088  0.75361679  0.49934962  1
  Co  Co104  1  0.50039948  0.75478083  0.74576006  1
  Co  Co105  1  0.62507887  0.63062165  0.87276283  1
  Co  Co106  1  0.37547436  0.12770541  0.87598485  1
  Co  Co107  1  0.24611200  0.74965164  0.74867099  1
  Co  Co108  1  0.87291265  0.62627498  0.12388307  1
  Co  Co109  1  0.36984442  0.87471854  0.62525124  1
  Co  Co110  1  0.00184864  0.25083294  0.24469151  1
  Co  Co111  1  0.49916700  0.50099780  0.24659878  1
  Co  Co112  1  0.12524020  0.38028974  0.12340954  1
  Co  Co113  1  0.75252154  0.50100735  0.25279753  1
  Co  Co114  1  0.12579000  0.12021273  0.62554932  1
  Co  Co115  1  0.12397668  0.87413374  0.12536675  1
  Co  Co116  1  0.62836892  0.87507238  0.62282533  1
  Co  Co117  1  0.74356665  0.24604020  0.25115620  1
  Co  Co118  1  0.12800692  0.12211851  0.12443590  1
  Co  Co119  1  -0.00160824  -0.00004826  0.00182262  1
  Co  Co120  1  0.37604250  0.37389845  0.62887803  1
  Co  Co121  1  0.87542444  0.87571809  0.37029220  1
  Co  Co122  1  0.87480845  0.62245319  0.62608494  1
  Co  Co123  1  0.49954347  0.49935886  0.50335886  1
  Co  Co124  1  0.50397714  0.74979371  0.00456589  1
  Co  Co125  1  0.00195529  0.24953009  0.50352278  1
  Co  Co126  1  0.75011048  0.50115509  -0.00490813  1
  Co  Co127  1  0.62277571  0.12277821  0.38087003  1
