# generated using pymatgen
data_Fe45Co19
_symmetry_space_group_name_H-M   'P 1'
_cell_length_a   11.41562753
_cell_length_b   11.41415177
_cell_length_c   11.41464430
_cell_angle_alpha   89.99736443
_cell_angle_beta   90.00711409
_cell_angle_gamma   89.99665008
_symmetry_Int_Tables_number   1
_chemical_formula_structural   Fe45Co19
_chemical_formula_sum   'Fe90 Co38'
_cell_volume   1487.32477074
_cell_formula_units_Z   2
loop_
 _symmetry_equiv_pos_site_id
 _symmetry_equiv_pos_as_xyz
  1  'x, y, z'
loop_
 _atom_site_type_symbol
 _atom_site_label
 _atom_site_symmetry_multiplicity
 _atom_site_fract_x
 _atom_site_fract_y
 _atom_site_fract_z
 _atom_site_occupancy
  Fe  Fe0  1  0.37640062  0.37433986  0.12533696  1
  Fe  Fe1  1  0.12413523  0.87854093  0.37720756  1
  Fe  Fe2  1  0.62469752  0.37483147  0.37235273  1
  Fe  Fe3  1  0.12250725  0.62411746  0.37445282  1
  Fe  Fe4  1  -0.00137044  0.00131324  0.00211765  1
  Fe  Fe5  1  0.50189200  0.00398895  0.24827249  1
  Fe  Fe6  1  0.62679811  0.12650893  0.87556098  1
  Fe  Fe7  1  0.12747175  0.12516627  0.37693678  1
  Fe  Fe8  1  0.24980925  0.49756220  0.25227831  1
  Fe  Fe9  1  -0.00268245  0.49851631  0.49635656  1
  Fe  Fe10  1  0.75369816  0.00092956  0.00067080  1
  Fe  Fe11  1  0.87337997  0.12440692  0.37030454  1
  Fe  Fe12  1  0.24937455  0.00158032  0.24981809  1
  Fe  Fe13  1  0.50171788  0.00096974  0.75073593  1
  Fe  Fe14  1  0.62664977  0.62217979  0.62451305  1
  Fe  Fe15  1  0.87924634  0.36932082  0.87316866  1
  Fe  Fe16  1  0.12500056  0.37504238  0.62380954  1
  Fe  Fe17  1  0.87703783  0.87636189  0.37244087  1
  Fe  Fe18  1  0.37590861  0.62156820  0.37669319  1
  Fe  Fe19  1  0.37449349  0.87454976  0.87452539  1
  Fe  Fe20  1  0.37371078  0.12920468  0.37276502  1
  Fe  Fe21  1  0.37512857  0.12861723  0.87297726  1
  Fe  Fe22  1  0.00028366  0.75167762  0.00324872  1
  Fe  Fe23  1  0.87663687  0.87847457  0.13000297  1
  Fe  Fe24  1  0.24893848  0.00063066  -0.00200249  1
  Fe  Fe25  1  -0.00172645  0.24746685  0.49976879  1
  Fe  Fe26  1  0.24668276  0.75129849  0.75014053  1
  Fe  Fe27  1  0.12543221  0.62236830  0.62401233  1
  Fe  Fe28  1  0.12583764  0.12571888  0.12405961  1
  Fe  Fe29  1  0.75224094  -0.00113267  0.50010707  1
  Fe  Fe30  1  0.75038585  0.75039702  0.24983361  1
  Fe  Fe31  1  0.75167126  0.00074266  0.74878391  1
  Fe  Fe32  1  0.12317440  0.62344190  0.87657477  1
  Fe  Fe33  1  0.49674957  0.00192086  0.50049837  1
  Fe  Fe34  1  0.49874594  0.74833888  0.24838860  1
  Fe  Fe35  1  0.50052485  0.49824572  0.75145113  1
  Fe  Fe36  1  0.75263992  0.49918028  0.49513723  1
  Fe  Fe37  1  0.37632874  0.87561407  0.37367108  1
  Fe  Fe38  1  0.62314385  0.37345158  0.87759591  1
  Fe  Fe39  1  0.75175196  0.49891179  -0.00005191  1
  Fe  Fe40  1  0.37348043  0.87687065  0.12468994  1
  Fe  Fe41  1  0.75404387  0.24805818  0.00192235  1
  Fe  Fe42  1  0.87523469  0.87341024  0.87309965  1
  Fe  Fe43  1  0.24952632  0.25150401  -0.00171689  1
  Fe  Fe44  1  -0.00163002  0.00184906  0.74587424  1
  Fe  Fe45  1  0.37576410  0.62460986  0.87568667  1
  Fe  Fe46  1  0.25182834  0.49779520  -0.00211801  1
  Fe  Fe47  1  0.12763297  0.12353018  0.62124173  1
  Fe  Fe48  1  0.24763964  -0.00002554  0.75175874  1
  Fe  Fe49  1  0.00058530  0.75162868  0.50023556  1
  Fe  Fe50  1  0.62746135  0.62637615  0.87711617  1
  Fe  Fe51  1  0.24805646  0.75143657  0.00006389  1
  Fe  Fe52  1  0.24890466  0.75009755  0.25041090  1
  Fe  Fe53  1  0.49923838  0.74890184  0.00153219  1
  Fe  Fe54  1  0.37317490  0.37571290  0.62460117  1
  Fe  Fe55  1  0.50260724  0.75019554  0.74862776  1
  Fe  Fe56  1  -0.00102443  0.49832840  0.75050211  1
  Fe  Fe57  1  0.75043910  0.25016645  0.49642959  1
  Fe  Fe58  1  0.00191753  0.75123818  0.74841029  1
  Fe  Fe59  1  0.50404905  0.24719422  0.24686440  1
  Fe  Fe60  1  0.62442342  0.87631854  0.12431910  1
  Fe  Fe61  1  0.24965273  0.75027369  0.49968359  1
  Fe  Fe62  1  0.87437870  0.62549212  0.62405900  1
  Fe  Fe63  1  0.87439078  0.37187271  0.62481612  1
  Fe  Fe64  1  0.62272925  0.87651658  0.37617724  1
  Fe  Fe65  1  0.00172241  0.24817034  0.24884425  1
  Fe  Fe66  1  -0.00216107  0.49809350  0.00078037  1
  Fe  Fe67  1  0.62820355  0.87255037  0.87577562  1
  Fe  Fe68  1  0.87216393  0.37462491  0.13221163  1
  Fe  Fe69  1  0.50026318  0.24832460  0.00233614  1
  Fe  Fe70  1  0.12449039  0.62323464  0.12627429  1
  Fe  Fe71  1  0.37270639  0.12732265  0.62718024  1
  Fe  Fe72  1  0.12382126  0.37578909  0.12428465  1
  Fe  Fe73  1  0.75187223  0.49834213  0.75242341  1
  Fe  Fe74  1  0.49904008  0.00131491  -0.00048024  1
  Fe  Fe75  1  0.50083474  0.50078225  0.24796777  1
  Fe  Fe76  1  0.12507356  0.37239160  0.37598223  1
  Fe  Fe77  1  0.62771485  0.37438604  0.62525963  1
  Fe  Fe78  1  0.11971818  0.12896871  0.87571996  1
  Fe  Fe79  1  0.87416376  0.62816274  0.87495630  1
  Fe  Fe80  1  0.62697325  0.12570612  0.62364180  1
  Fe  Fe81  1  0.49877809  0.25145988  0.50055323  1
  Fe  Fe82  1  0.24892559  0.49638180  0.75362944  1
  Fe  Fe83  1  0.87661819  0.62312679  0.13014889  1
  Fe  Fe84  1  0.62469089  0.62524363  0.37635118  1
  Fe  Fe85  1  0.74988215  0.75176364  0.50127138  1
  Fe  Fe86  1  0.62709659  0.62326874  0.12377969  1
  Fe  Fe87  1  0.49982971  0.74988557  0.50235964  1
  Fe  Fe88  1  0.37393742  0.62171377  0.62320893  1
  Fe  Fe89  1  0.37363061  0.87556448  0.62585650  1
  Co  Co90  1  0.74490115  0.00044670  0.25078459  1
  Co  Co91  1  0.12691061  0.87669538  0.12491682  1
  Co  Co92  1  0.62443993  0.12395393  0.37930524  1
  Co  Co93  1  0.50145807  0.49710850  0.49988786  1
  Co  Co94  1  0.11965174  0.37266413  0.87677728  1
  Co  Co95  1  0.87404741  0.12305932  0.13094416  1
  Co  Co96  1  0.37176484  0.62441218  0.12524850  1
  Co  Co97  1  0.62677524  0.37580511  0.12409501  1
  Co  Co98  1  0.25196302  0.25171135  0.49974798  1
  Co  Co99  1  -0.00416269  0.24975437  0.00642264  1
  Co  Co100  1  0.87416774  0.37068958  0.37120359  1
  Co  Co101  1  -0.00438606  0.00281085  0.50079190  1
  Co  Co102  1  0.37262994  0.12514496  0.12443312  1
  Co  Co103  1  0.12164914  0.87626064  0.87505321  1
  Co  Co104  1  0.25467744  0.00031502  0.49778920  1
  Co  Co105  1  0.00236710  0.75183046  0.24901918  1
  Co  Co106  1  0.62415579  0.87846463  0.62369189  1
  Co  Co107  1  0.74965465  0.50218160  0.25365606  1
  Co  Co108  1  0.24686181  0.25195521  0.75106928  1
  Co  Co109  1  0.12556847  0.87847110  0.62211358  1
  Co  Co110  1  0.50168186  0.25049676  0.74777710  1
  Co  Co111  1  0.37772450  0.37373710  0.37217696  1
  Co  Co112  1  0.87671029  0.62823557  0.37444937  1
  Co  Co113  1  0.49948642  0.50170894  0.00119625  1
  Co  Co114  1  0.75334960  0.75071130  0.00493690  1
  Co  Co115  1  0.87613213  0.87314322  0.62532148  1
  Co  Co116  1  0.74874971  0.25016948  0.75269824  1
  Co  Co117  1  0.24847526  0.49795537  0.49652321  1
  Co  Co118  1  0.62764490  0.12339489  0.12070824  1
  Co  Co119  1  0.37821649  0.37222094  0.87602192  1
  Co  Co120  1  0.74823039  0.75026408  0.74694614  1
  Co  Co121  1  0.87813593  0.12714341  0.87319917  1
  Co  Co122  1  0.00048226  0.49776798  0.25375246  1
  Co  Co123  1  0.24837426  0.25143760  0.24859765  1
  Co  Co124  1  0.00228694  0.24800471  0.74461980  1
  Co  Co125  1  0.74489671  0.24585546  0.24932408  1
  Co  Co126  1  0.00486688  0.00265511  0.25077514  1
  Co  Co127  1  0.87051767  0.12907381  0.62490500  1
