# generated using pymatgen
data_Fe45Co19
_symmetry_space_group_name_H-M   'P 1'
_cell_length_a   11.41416075
_cell_length_b   11.41465736
_cell_length_c   11.41424735
_cell_angle_alpha   90.00100997
_cell_angle_beta   89.99389015
_cell_angle_gamma   90.01231570
_symmetry_Int_Tables_number   1
_chemical_formula_structural   Fe45Co19
_chemical_formula_sum   'Fe90 Co38'
_cell_volume   1487.14779411
_cell_formula_units_Z   2
loop_
 _symmetry_equiv_pos_site_id
 _symmetry_equiv_pos_as_xyz
  1  'x, y, z'
loop_
 _atom_site_type_symbol
 _atom_site_label
 _atom_site_symmetry_multiplicity
 _atom_site_fract_x
 _atom_site_fract_y
 _atom_site_fract_z
 _atom_site_occupancy
  Fe  Fe0  1  0.00040452  0.25133862  0.00087958  1
  Fe  Fe1  1  0.87504023  0.37741598  0.87696493  1
  Fe  Fe2  1  0.37621657  0.37421565  0.87446716  1
  Fe  Fe3  1  0.12569006  0.37556679  0.62344405  1
  Fe  Fe4  1  0.00019139  0.50158647  0.25060912  1
  Fe  Fe5  1  0.87524402  0.12473484  0.37389988  1
  Fe  Fe6  1  0.50186194  0.24698251  0.75188131  1
  Fe  Fe7  1  0.49941545  0.24773314  -0.00110244  1
  Fe  Fe8  1  0.62411549  0.87530302  0.62457628  1
  Fe  Fe9  1  0.12422314  0.12334453  0.62431178  1
  Fe  Fe10  1  0.62363382  0.37597685  0.37141047  1
  Fe  Fe11  1  0.50122400  0.00173850  0.75185333  1
  Fe  Fe12  1  -0.00262784  0.50263580  0.75004822  1
  Fe  Fe13  1  0.25105753  0.00016128  0.75072335  1
  Fe  Fe14  1  0.74652879  0.25040082  0.49864665  1
  Fe  Fe15  1  0.37849154  0.12468364  0.62203435  1
  Fe  Fe16  1  0.62133900  0.12537526  0.12733260  1
  Fe  Fe17  1  0.12389675  0.12560171  0.37564059  1
  Fe  Fe18  1  0.25237966  0.50099104  0.74899862  1
  Fe  Fe19  1  0.49804340  0.75471110  0.49508149  1
  Fe  Fe20  1  0.12777776  0.12634564  0.12396795  1
  Fe  Fe21  1  0.87519182  0.87548731  0.62597155  1
  Fe  Fe22  1  -0.00336351  0.74741589  0.74931651  1
  Fe  Fe23  1  0.25338572  0.50177917  0.25184312  1
  Fe  Fe24  1  0.75053328  0.50503245  0.74988836  1
  Fe  Fe25  1  0.37524541  0.37559890  0.12446596  1
  Fe  Fe26  1  0.87517112  0.87538839  0.12755306  1
  Fe  Fe27  1  0.25528669  0.24758595  0.24980247  1
  Fe  Fe28  1  0.00281346  -0.00232675  0.00081494  1
  Fe  Fe29  1  0.74955932  0.74991134  0.50109144  1
  Fe  Fe30  1  0.87511798  0.12463001  0.12550013  1
  Fe  Fe31  1  0.87424320  0.87451816  0.37243238  1
  Fe  Fe32  1  0.12455584  0.87551340  0.62602064  1
  Fe  Fe33  1  0.12694837  0.12553742  0.87548571  1
  Fe  Fe34  1  0.37946951  0.12529000  0.37611389  1
  Fe  Fe35  1  -0.00083826  0.24954871  0.74935882  1
  Fe  Fe36  1  0.24918393  0.49891296  -0.00101022  1
  Fe  Fe37  1  0.62260203  0.62640970  0.37350273  1
  Fe  Fe38  1  0.37503268  0.87692016  0.87781824  1
  Fe  Fe39  1  0.87457282  0.62336397  0.37756734  1
  Fe  Fe40  1  0.00093422  0.75139620  0.49885570  1
  Fe  Fe41  1  0.00037053  -0.00270336  0.49800345  1
  Fe  Fe42  1  0.62458916  0.37569014  0.12724688  1
  Fe  Fe43  1  0.87477472  0.62400042  0.12301465  1
  Fe  Fe44  1  0.74709164  -0.00202748  0.00258598  1
  Fe  Fe45  1  0.00290365  -0.00111623  0.25036134  1
  Fe  Fe46  1  0.62536207  0.87301113  0.87644435  1
  Fe  Fe47  1  0.74903785  0.24993254  0.75077165  1
  Fe  Fe48  1  0.12510737  0.62516584  0.62319816  1
  Fe  Fe49  1  0.62120810  0.12452967  0.37444314  1
  Fe  Fe50  1  0.25177363  0.74898871  0.74979378  1
  Fe  Fe51  1  0.12811215  0.37308264  0.37407314  1
  Fe  Fe52  1  0.74725241  -0.00042507  0.49854746  1
  Fe  Fe53  1  0.50143199  0.50048105  -0.00065206  1
  Fe  Fe54  1  0.62242070  0.62631282  0.62303926  1
  Fe  Fe55  1  -0.00118560  0.25027495  0.24998129  1
  Fe  Fe56  1  0.62415151  0.37590585  0.62705759  1
  Fe  Fe57  1  0.49660113  0.50298460  0.25101939  1
  Fe  Fe58  1  0.12643651  0.37431204  0.12642995  1
  Fe  Fe59  1  0.37635728  0.37371846  0.62182165  1
  Fe  Fe60  1  0.74779698  -0.00122932  0.74998635  1
  Fe  Fe61  1  0.87324577  0.87275867  0.87495238  1
  Fe  Fe62  1  0.74991528  0.74688834  0.24814186  1
  Fe  Fe63  1  0.74777398  0.00131049  0.25017004  1
  Fe  Fe64  1  0.25097947  0.24983369  0.74915798  1
  Fe  Fe65  1  0.87344294  0.37543472  0.12718860  1
  Fe  Fe66  1  0.12484493  0.62438492  0.87647325  1
  Fe  Fe67  1  0.37557060  0.87579758  0.62425682  1
  Fe  Fe68  1  0.74820638  0.50082298  0.00123399  1
  Fe  Fe69  1  0.62663610  0.62843871  0.87728847  1
  Fe  Fe70  1  0.87491267  0.37878690  0.62122770  1
  Fe  Fe71  1  0.25099204  0.49996424  0.49924926  1
  Fe  Fe72  1  0.49967964  0.75030338  0.75081835  1
  Fe  Fe73  1  0.87376897  0.12257394  0.87651714  1
  Fe  Fe74  1  0.25034192  -0.00221180  0.49680313  1
  Fe  Fe75  1  0.12561579  0.87365366  0.87326328  1
  Fe  Fe76  1  0.87420686  0.12378343  0.62504650  1
  Fe  Fe77  1  0.87336207  0.37676402  0.37465008  1
  Fe  Fe78  1  0.74789256  0.25013139  0.00071607  1
  Fe  Fe79  1  0.62108771  0.87308507  0.12949499  1
  Fe  Fe80  1  0.12827636  0.63004044  0.37396063  1
  Fe  Fe81  1  0.12841524  0.62694561  0.12577258  1
  Fe  Fe82  1  0.12425138  0.37582314  0.87503617  1
  Fe  Fe83  1  0.50005258  0.50175381  0.75013615  1
  Fe  Fe84  1  0.49698815  0.75116070  0.00536646  1
  Fe  Fe85  1  0.00084896  0.75036169  0.00204406  1
  Fe  Fe86  1  0.37505590  0.62530940  0.87730277  1
  Fe  Fe87  1  0.37640696  0.62652665  0.62113163  1
  Fe  Fe88  1  0.13105862  0.87214981  0.13078030  1
  Fe  Fe89  1  0.00042374  0.25132761  0.49977621  1
  Co  Co90  1  0.74902377  0.75184927  0.00550120  1
  Co  Co91  1  0.37196223  0.88081340  0.12586323  1
  Co  Co92  1  0.24918318  0.00463113  0.25323945  1
  Co  Co93  1  -0.00276200  0.74815768  0.24934308  1
  Co  Co94  1  0.87274835  0.62717883  0.87973164  1
  Co  Co95  1  0.00483070  0.49954911  0.49574298  1
  Co  Co96  1  0.25033945  0.24781457  0.49944885  1
  Co  Co97  1  0.62501866  0.37618629  0.87410159  1
  Co  Co98  1  0.25074802  0.75338981  0.50146509  1
  Co  Co99  1  0.74904295  0.24859318  0.25091333  1
  Co  Co100  1  0.37594520  0.12036003  0.12400820  1
  Co  Co101  1  0.49729303  0.25143453  0.24850968  1
  Co  Co102  1  0.62739303  0.12373316  0.87551059  1
  Co  Co103  1  0.12730003  0.87089263  0.37029957  1
  Co  Co104  1  0.62409004  0.12368935  0.62398465  1
  Co  Co105  1  0.75023400  0.74841772  0.74653072  1
  Co  Co106  1  0.25145427  0.75106991  -0.00088182  1
  Co  Co107  1  0.75003790  0.50270684  0.24940509  1
  Co  Co108  1  0.49967293  -0.00315252  0.25239703  1
  Co  Co109  1  0.49401539  0.74772852  0.24874966  1
  Co  Co110  1  0.87624542  0.62237031  0.61933311  1
  Co  Co111  1  0.37291182  0.12412479  0.87672178  1
  Co  Co112  1  0.50190901  0.00045591  0.00012663  1
  Co  Co113  1  0.62285586  0.62456453  0.12590488  1
  Co  Co114  1  0.37329776  0.62220974  0.12132350  1
  Co  Co115  1  0.74496457  0.49973583  0.49943964  1
  Co  Co116  1  0.37447381  0.37435830  0.37698230  1
  Co  Co117  1  0.50106384  0.49792199  0.49908110  1
  Co  Co118  1  0.24756548  -0.00169347  -0.00023485  1
  Co  Co119  1  0.25963040  0.74741598  0.24887913  1
  Co  Co120  1  -0.00035963  0.00063977  0.75180958  1
  Co  Co121  1  0.25161632  0.25190211  0.00058366  1
  Co  Co122  1  0.50111249  -0.00427971  0.49708644  1
  Co  Co123  1  0.62714227  0.87205734  0.37111443  1
  Co  Co124  1  0.37221341  0.87586749  0.37165970  1
  Co  Co125  1  0.50367031  0.25271121  0.49943737  1
  Co  Co126  1  0.37530370  0.62459609  0.38040502  1
  Co  Co127  1  0.00117188  0.50044919  0.00329646  1
