# generated using pymatgen
data_Fe45Co19
_symmetry_space_group_name_H-M   'P 1'
_cell_length_a   11.41370094
_cell_length_b   11.41676528
_cell_length_c   11.41566233
_cell_angle_alpha   90.00004697
_cell_angle_beta   89.98845803
_cell_angle_gamma   89.99793391
_symmetry_Int_Tables_number   1
_chemical_formula_structural   Fe45Co19
_chemical_formula_sum   'Fe90 Co38'
_cell_volume   1487.54689710
_cell_formula_units_Z   2
loop_
 _symmetry_equiv_pos_site_id
 _symmetry_equiv_pos_as_xyz
  1  'x, y, z'
loop_
 _atom_site_type_symbol
 _atom_site_label
 _atom_site_symmetry_multiplicity
 _atom_site_fract_x
 _atom_site_fract_y
 _atom_site_fract_z
 _atom_site_occupancy
  Fe  Fe0  1  0.00086312  -0.00032719  -0.00012986  1
  Fe  Fe1  1  0.87052416  0.12820632  0.37480983  1
  Fe  Fe2  1  0.62475566  0.87254470  0.87329274  1
  Fe  Fe3  1  0.87053447  0.37293588  0.37595208  1
  Fe  Fe4  1  0.12605893  0.87513842  0.87611830  1
  Fe  Fe5  1  -0.00131911  0.49916683  -0.00002267  1
  Fe  Fe6  1  0.74988392  -0.00023228  -0.00154022  1
  Fe  Fe7  1  0.37516580  0.87429992  0.87320234  1
  Fe  Fe8  1  0.62317131  0.12320201  0.62662068  1
  Fe  Fe9  1  -0.00081418  0.75001416  0.49951482  1
  Fe  Fe10  1  0.37849314  0.62833280  0.87788830  1
  Fe  Fe11  1  -0.00003498  0.00139527  0.74996291  1
  Fe  Fe12  1  -0.00114200  0.49854432  0.24953145  1
  Fe  Fe13  1  -0.00116030  0.00175912  0.50134155  1
  Fe  Fe14  1  0.37824475  0.62518070  0.37285441  1
  Fe  Fe15  1  0.12617755  0.37381381  0.87500878  1
  Fe  Fe16  1  0.62461362  0.87289565  0.62479485  1
  Fe  Fe17  1  0.12789724  0.12656847  0.37773992  1
  Fe  Fe18  1  0.74891635  0.75029842  0.25025046  1
  Fe  Fe19  1  0.25348779  0.25206701  0.74521767  1
  Fe  Fe20  1  0.62613007  0.87329465  0.37751733  1
  Fe  Fe21  1  0.62235789  0.62743833  0.37543235  1
  Fe  Fe22  1  0.12693967  0.12620150  0.87616743  1
  Fe  Fe23  1  0.25249657  0.50189036  0.24679341  1
  Fe  Fe24  1  0.87274153  0.12499752  0.87379020  1
  Fe  Fe25  1  0.12563443  0.87420323  0.62565404  1
  Fe  Fe26  1  0.87424551  0.87445034  0.12568130  1
  Fe  Fe27  1  -0.00017322  0.25039937  0.50151589  1
  Fe  Fe28  1  0.12882824  0.12549134  0.62241114  1
  Fe  Fe29  1  0.49906785  0.49901634  -0.00022980  1
  Fe  Fe30  1  0.12470327  0.62540854  0.12418269  1
  Fe  Fe31  1  0.62117294  0.62673392  0.12327432  1
  Fe  Fe32  1  0.00012521  0.24959662  0.75021239  1
  Fe  Fe33  1  0.74561629  0.25129431  0.75197855  1
  Fe  Fe34  1  0.87280704  0.87546379  0.37546579  1
  Fe  Fe35  1  0.62704192  0.12754643  0.37475744  1
  Fe  Fe36  1  -0.00075481  0.25028934  0.24883377  1
  Fe  Fe37  1  0.74885383  0.50049479  0.50224406  1
  Fe  Fe38  1  0.75162517  0.74732927  -0.00188789  1
  Fe  Fe39  1  0.25123980  0.74795261  0.74939598  1
  Fe  Fe40  1  0.74947403  -0.00019037  0.75096293  1
  Fe  Fe41  1  0.37612058  0.37571327  0.37376349  1
  Fe  Fe42  1  -0.00182723  0.74978468  -0.00098625  1
  Fe  Fe43  1  0.74774885  0.50016211  0.24809266  1
  Fe  Fe44  1  0.75088010  0.74515352  0.75124950  1
  Fe  Fe45  1  0.62100196  0.62487280  0.62498366  1
  Fe  Fe46  1  0.25052975  0.00094211  0.75046337  1
  Fe  Fe47  1  0.61992993  0.37934474  0.62888476  1
  Fe  Fe48  1  0.37287407  0.12405199  0.37788330  1
  Fe  Fe49  1  0.37244810  0.87699101  0.12793394  1
  Fe  Fe50  1  0.12460782  0.62456460  0.87492694  1
  Fe  Fe51  1  0.87361851  0.37387924  0.62646580  1
  Fe  Fe52  1  0.37632574  0.87629562  0.62637591  1
  Fe  Fe53  1  0.62530462  0.37294977  0.37493041  1
  Fe  Fe54  1  0.12578351  0.62373523  0.37592109  1
  Fe  Fe55  1  0.49956265  -0.00113207  0.50052269  1
  Fe  Fe56  1  -0.00218335  0.74899821  0.75188953  1
  Fe  Fe57  1  0.37963049  0.12509331  0.87359436  1
  Fe  Fe58  1  0.00151106  0.74981038  0.24981477  1
  Fe  Fe59  1  0.62255627  0.37545769  0.12321139  1
  Fe  Fe60  1  0.25408720  0.24706019  0.00252733  1
  Fe  Fe61  1  -0.00075700  0.49813941  0.50004082  1
  Fe  Fe62  1  0.25179471  0.74984121  0.50023048  1
  Fe  Fe63  1  0.87326363  0.62451199  0.37506747  1
  Fe  Fe64  1  0.62594250  0.87536251  0.12498899  1
  Fe  Fe65  1  0.00140660  0.00150192  0.24868259  1
  Fe  Fe66  1  0.87356454  0.87419418  0.62525670  1
  Fe  Fe67  1  -0.00167104  0.49924167  0.75066306  1
  Fe  Fe68  1  0.74622935  0.25172270  -0.00314654  1
  Fe  Fe69  1  0.25224976  0.24704978  0.24673775  1
  Fe  Fe70  1  0.37783641  0.62253233  0.62316157  1
  Fe  Fe71  1  -0.00103425  0.25067656  -0.00087639  1
  Fe  Fe72  1  0.12699548  0.37384272  0.37437723  1
  Fe  Fe73  1  0.25250519  0.49901597  0.75097223  1
  Fe  Fe74  1  0.87274651  0.37589006  0.12335232  1
  Fe  Fe75  1  0.62415371  0.12371406  0.12449184  1
  Fe  Fe76  1  0.12763260  0.37388201  0.12429755  1
  Fe  Fe77  1  0.12755201  0.87512342  0.37329091  1
  Fe  Fe78  1  0.37962348  0.37194296  0.87461032  1
  Fe  Fe79  1  0.25104782  0.75044408  0.00232110  1
  Fe  Fe80  1  0.50007979  -0.00202861  -0.00225673  1
  Fe  Fe81  1  0.49907743  0.24992610  0.24768841  1
  Fe  Fe82  1  0.37287364  0.87502434  0.37206434  1
  Fe  Fe83  1  0.12432349  0.62319324  0.62499663  1
  Fe  Fe84  1  0.49864579  0.25058525  0.50301189  1
  Fe  Fe85  1  0.87245039  0.12525447  0.12534995  1
  Fe  Fe86  1  0.25068051  0.49652714  0.50142432  1
  Fe  Fe87  1  0.50259100  -0.00047073  0.25180134  1
  Fe  Fe88  1  0.25242521  0.50017605  -0.00025377  1
  Fe  Fe89  1  0.75060571  0.00180914  0.50038581  1
  Co  Co90  1  0.50266812  0.24977751  -0.00015571  1
  Co  Co91  1  0.87523939  0.62580558  0.12667574  1
  Co  Co92  1  0.12441348  0.12594624  0.12239171  1
  Co  Co93  1  0.74928232  0.50155610  0.00164552  1
  Co  Co94  1  0.62286707  0.62419427  0.87733510  1
  Co  Co95  1  0.87446823  0.87589115  0.87428682  1
  Co  Co96  1  0.25257246  0.25549010  0.50336639  1
  Co  Co97  1  0.74867618  0.25140793  0.24597513  1
  Co  Co98  1  0.50069955  0.75283332  0.24966526  1
  Co  Co99  1  0.87458442  0.62107643  0.87600988  1
  Co  Co100  1  0.25002742  -0.00384317  0.50026726  1
  Co  Co101  1  0.50189448  0.49890685  0.24934556  1
  Co  Co102  1  0.62340896  0.12249209  0.87554849  1
  Co  Co103  1  0.50089054  -0.00145064  0.75040504  1
  Co  Co104  1  0.62358469  0.38007843  0.87329136  1
  Co  Co105  1  0.74878122  -0.00014786  0.25111671  1
  Co  Co106  1  0.49994217  0.74897944  0.74977631  1
  Co  Co107  1  0.37448315  0.12260856  0.62342067  1
  Co  Co108  1  0.49934452  0.75456156  0.00052913  1
  Co  Co109  1  0.87319185  0.37595197  0.87431661  1
  Co  Co110  1  0.75039613  0.50326047  0.74849372  1
  Co  Co111  1  0.24686257  0.00433638  0.24849419  1
  Co  Co112  1  0.37591375  0.37542316  0.12454882  1
  Co  Co113  1  0.38110986  0.37847211  0.62615153  1
  Co  Co114  1  0.12378007  0.37598717  0.62636264  1
  Co  Co115  1  0.87272440  0.12610396  0.62739192  1
  Co  Co116  1  0.50198432  0.24820855  0.74917604  1
  Co  Co117  1  0.25170839  0.00163320  -0.00107635  1
  Co  Co118  1  0.50178940  0.49933527  0.49626006  1
  Co  Co119  1  0.12669022  0.87453966  0.12405373  1
  Co  Co120  1  0.37910289  0.62561100  0.12480840  1
  Co  Co121  1  0.49641499  0.50407514  0.75484188  1
  Co  Co122  1  0.87696576  0.62539074  0.62369080  1
  Co  Co123  1  0.49744756  0.75182130  0.50006571  1
  Co  Co124  1  0.75000386  0.74822076  0.50073884  1
  Co  Co125  1  0.74662445  0.25066866  0.50519149  1
  Co  Co126  1  0.38000068  0.12105928  0.12491576  1
  Co  Co127  1  0.24962446  0.74627646  0.24893541  1
