# generated using pymatgen
data_Fe45Co19
_symmetry_space_group_name_H-M   'P 1'
_cell_length_a   11.41411010
_cell_length_b   11.41533299
_cell_length_c   11.41500296
_cell_angle_alpha   90.00034022
_cell_angle_beta   90.00638903
_cell_angle_gamma   89.99761120
_symmetry_Int_Tables_number   1
_chemical_formula_structural   Fe45Co19
_chemical_formula_sum   'Fe90 Co38'
_cell_volume   1487.32770322
_cell_formula_units_Z   2
loop_
 _symmetry_equiv_pos_site_id
 _symmetry_equiv_pos_as_xyz
  1  'x, y, z'
loop_
 _atom_site_type_symbol
 _atom_site_label
 _atom_site_symmetry_multiplicity
 _atom_site_fract_x
 _atom_site_fract_y
 _atom_site_fract_z
 _atom_site_occupancy
  Fe  Fe0  1  0.75023951  -0.00066699  0.00116278  1
  Fe  Fe1  1  0.87379320  0.12616122  0.87553394  1
  Fe  Fe2  1  0.37600309  0.37449864  0.37467335  1
  Fe  Fe3  1  -0.00100780  0.75059872  0.24926291  1
  Fe  Fe4  1  0.62499280  0.87420044  0.87224128  1
  Fe  Fe5  1  0.37460194  0.37550806  0.87404855  1
  Fe  Fe6  1  0.75298112  0.00115632  0.74658364  1
  Fe  Fe7  1  0.37223665  0.87524424  0.37720609  1
  Fe  Fe8  1  0.75440686  0.49995043  0.25145738  1
  Fe  Fe9  1  0.87496806  0.87562446  0.37477859  1
  Fe  Fe10  1  0.00490927  0.25047928  0.49719010  1
  Fe  Fe11  1  0.37175097  0.12342567  0.37910931  1
  Fe  Fe12  1  0.24677563  0.74973522  -0.00116114  1
  Fe  Fe13  1  0.12457241  0.87780635  0.12685476  1
  Fe  Fe14  1  0.87663057  0.87467631  0.87411346  1
  Fe  Fe15  1  0.37498045  0.12655877  0.12508883  1
  Fe  Fe16  1  0.25104071  0.00173072  0.74840129  1
  Fe  Fe17  1  0.00062739  0.74908246  -0.00124782  1
  Fe  Fe18  1  0.74861665  0.24884383  0.74768163  1
  Fe  Fe19  1  0.49858744  0.50056129  0.00072464  1
  Fe  Fe20  1  0.74644169  0.24923295  0.24696509  1
  Fe  Fe21  1  0.75201687  0.74973293  0.24977814  1
  Fe  Fe22  1  0.87433382  0.12752218  0.12245666  1
  Fe  Fe23  1  0.25029925  -0.00000963  -0.00031435  1
  Fe  Fe24  1  0.24827888  0.24978345  0.25375696  1
  Fe  Fe25  1  0.12580835  0.37519613  0.62589804  1
  Fe  Fe26  1  0.25058665  0.50023788  0.50169628  1
  Fe  Fe27  1  -0.00310209  0.49823213  0.49836335  1
  Fe  Fe28  1  0.62551179  0.87836286  0.12886064  1
  Fe  Fe29  1  0.62488566  0.62271959  0.12732192  1
  Fe  Fe30  1  0.00152239  0.25085684  -0.00094766  1
  Fe  Fe31  1  0.12426389  0.62369788  0.37505917  1
  Fe  Fe32  1  0.62534208  0.12503256  0.87530618  1
  Fe  Fe33  1  0.25221676  0.74534376  0.74759878  1
  Fe  Fe34  1  0.37557183  0.87208896  0.87595797  1
  Fe  Fe35  1  0.12741838  0.37849257  0.87157602  1
  Fe  Fe36  1  0.49822487  0.74685695  0.75016459  1
  Fe  Fe37  1  0.50214582  0.24828126  0.49858928  1
  Fe  Fe38  1  0.25264722  0.24968229  0.74768624  1
  Fe  Fe39  1  0.12252097  0.62364299  0.62623855  1
  Fe  Fe40  1  0.50378785  0.25098722  0.00096299  1
  Fe  Fe41  1  0.12352925  0.87570846  0.86951409  1
  Fe  Fe42  1  0.12371065  0.37574664  0.12786278  1
  Fe  Fe43  1  0.00383002  0.75225888  0.49993551  1
  Fe  Fe44  1  0.62861485  0.11893776  0.37767421  1
  Fe  Fe45  1  -0.00313506  0.00154248  0.25087036  1
  Fe  Fe46  1  0.49761193  0.00169972  0.25177916  1
  Fe  Fe47  1  0.00034889  -0.00010281  -0.00125467  1
  Fe  Fe48  1  0.37661293  0.12713726  0.87497281  1
  Fe  Fe49  1  0.50498256  0.75426821  0.49767051  1
  Fe  Fe50  1  0.00074405  0.25017352  0.25373980  1
  Fe  Fe51  1  0.37719854  0.37281757  0.62365884  1
  Fe  Fe52  1  0.49712345  0.50334060  0.75035773  1
  Fe  Fe53  1  0.37464616  0.87346137  0.12426167  1
  Fe  Fe54  1  0.37444374  0.87376420  0.62270492  1
  Fe  Fe55  1  0.37452903  0.62769631  0.37877672  1
  Fe  Fe56  1  0.50150573  0.50110644  0.49771758  1
  Fe  Fe57  1  0.00163195  0.00046632  0.50355782  1
  Fe  Fe58  1  0.24844102  0.25151400  0.00060970  1
  Fe  Fe59  1  0.12641761  0.61943184  0.87150810  1
  Fe  Fe60  1  0.37468781  0.62770279  0.12193482  1
  Fe  Fe61  1  0.62532237  0.37479023  0.87361929  1
  Fe  Fe62  1  0.62545232  0.62555180  0.62300709  1
  Fe  Fe63  1  0.75429949  0.50241661  0.74813101  1
  Fe  Fe64  1  0.12367900  0.62307851  0.12610014  1
  Fe  Fe65  1  0.37854513  0.37275613  0.12853099  1
  Fe  Fe66  1  0.87374325  0.37188868  0.62176407  1
  Fe  Fe67  1  0.62313307  0.37677540  0.37056594  1
  Fe  Fe68  1  0.87325390  0.37371718  0.87592750  1
  Fe  Fe69  1  -0.00488129  0.49909361  0.25365025  1
  Fe  Fe70  1  -0.00169587  0.24968564  0.74954801  1
  Fe  Fe71  1  0.62560193  0.62497606  0.87601714  1
  Fe  Fe72  1  0.75123697  0.49703717  0.00289172  1
  Fe  Fe73  1  0.24806870  0.75120170  0.25220570  1
  Fe  Fe74  1  0.49790537  0.00091354  0.74806881  1
  Fe  Fe75  1  0.74716152  0.75461582  0.49949004  1
  Fe  Fe76  1  0.87842532  0.87305859  0.62783076  1
  Fe  Fe77  1  0.12587860  0.12388883  0.12709400  1
  Fe  Fe78  1  0.25253627  0.50117582  0.24987910  1
  Fe  Fe79  1  0.24422302  -0.00149725  0.50258017  1
  Fe  Fe80  1  0.62334089  0.37672066  0.62652955  1
  Fe  Fe81  1  -0.00078797  0.49888535  -0.00040208  1
  Fe  Fe82  1  0.49976628  -0.00190199  -0.00001756  1
  Fe  Fe83  1  0.75000290  0.75051149  0.00219687  1
  Fe  Fe84  1  0.50115707  0.74919447  0.25193762  1
  Fe  Fe85  1  0.12533335  0.12492288  0.87241664  1
  Fe  Fe86  1  0.75089674  0.49955325  0.49750478  1
  Fe  Fe87  1  0.87088177  0.12674795  0.38090492  1
  Fe  Fe88  1  0.62435407  0.12217343  0.62308116  1
  Fe  Fe89  1  0.75321742  0.74673282  0.74952245  1
  Co  Co90  1  0.87683771  0.37282705  0.12586190  1
  Co  Co91  1  -0.00237379  0.74477254  0.75221743  1
  Co  Co92  1  0.87501760  0.62907702  0.37790184  1
  Co  Co93  1  0.37483095  0.12499698  0.62067162  1
  Co  Co94  1  0.49584745  0.50528889  0.25145673  1
  Co  Co95  1  0.62342095  0.87406913  0.63037815  1
  Co  Co96  1  0.12384389  0.87753914  0.37221947  1
  Co  Co97  1  -0.00590566  0.49922091  0.74777344  1
  Co  Co98  1  0.50279678  0.24352554  0.25379392  1
  Co  Co99  1  0.87224505  0.36977095  0.37615976  1
  Co  Co100  1  0.87409184  0.12916131  0.61973061  1
  Co  Co101  1  0.25204593  -0.00102489  0.24939498  1
  Co  Co102  1  0.62698537  0.62492726  0.37509374  1
  Co  Co103  1  0.87469058  0.62676840  0.61889788  1
  Co  Co104  1  0.75114519  -0.00639810  0.50465788  1
  Co  Co105  1  -0.00170015  0.00395685  0.74713528  1
  Co  Co106  1  0.87610677  0.62459554  0.12421266  1
  Co  Co107  1  0.74677889  0.25180847  0.00282477  1
  Co  Co108  1  0.12696673  0.37924224  0.37426607  1
  Co  Co109  1  0.24433518  0.75071695  0.49999950  1
  Co  Co110  1  0.12412610  0.87326004  0.63114404  1
  Co  Co111  1  0.24816970  0.25137485  0.49842202  1
  Co  Co112  1  0.62117608  0.37830973  0.12954717  1
  Co  Co113  1  0.25059490  0.49780503  0.00351732  1
  Co  Co114  1  0.74286245  0.25303853  0.50076366  1
  Co  Co115  1  0.50411279  0.75070474  0.00112570  1
  Co  Co116  1  0.50123614  0.24839741  0.74794782  1
  Co  Co117  1  0.75537859  0.00260546  0.24902850  1
  Co  Co118  1  0.25540464  0.50166088  0.74502986  1
  Co  Co119  1  0.50244608  -0.00297622  0.49995118  1
  Co  Co120  1  0.37368383  0.62506658  0.87950545  1
  Co  Co121  1  0.12601526  0.12186756  0.37411621  1
  Co  Co122  1  0.62791531  0.87960042  0.36920079  1
  Co  Co123  1  0.37859721  0.62760276  0.61828682  1
  Co  Co124  1  0.87608252  0.87503267  0.12370932  1
  Co  Co125  1  0.87443757  0.62373892  0.87890136  1
  Co  Co126  1  0.62416160  0.12129897  0.12353247  1
  Co  Co127  1  0.12563551  0.12828433  0.62651568  1
