# generated using pymatgen
data_Fe45Co19
_symmetry_space_group_name_H-M   'P 1'
_cell_length_a   11.41534921
_cell_length_b   11.41505672
_cell_length_c   11.41533460
_cell_angle_alpha   89.99575165
_cell_angle_beta   90.00160813
_cell_angle_gamma   90.00163545
_symmetry_Int_Tables_number   1
_chemical_formula_structural   Fe45Co19
_chemical_formula_sum   'Fe90 Co38'
_cell_volume   1487.49638788
_cell_formula_units_Z   2
loop_
 _symmetry_equiv_pos_site_id
 _symmetry_equiv_pos_as_xyz
  1  'x, y, z'
loop_
 _atom_site_type_symbol
 _atom_site_label
 _atom_site_symmetry_multiplicity
 _atom_site_fract_x
 _atom_site_fract_y
 _atom_site_fract_z
 _atom_site_occupancy
  Fe  Fe0  1  0.75109476  0.00237989  0.49947305  1
  Fe  Fe1  1  0.24940757  0.00101082  0.49981630  1
  Fe  Fe2  1  0.74829878  0.74888353  0.49946883  1
  Fe  Fe3  1  0.75233309  0.25033142  0.75140946  1
  Fe  Fe4  1  0.37682301  0.62426023  0.12762479  1
  Fe  Fe5  1  0.37374112  0.12900660  0.12648087  1
  Fe  Fe6  1  0.50048575  0.00149034  0.50138780  1
  Fe  Fe7  1  0.62421385  0.62296206  0.87326468  1
  Fe  Fe8  1  -0.00165497  0.00283215  0.49983191  1
  Fe  Fe9  1  0.74900796  0.74938879  0.25059908  1
  Fe  Fe10  1  0.62308137  0.61986084  0.37132369  1
  Fe  Fe11  1  0.75011539  -0.00079724  0.75182950  1
  Fe  Fe12  1  0.37440559  0.12400865  0.87582560  1
  Fe  Fe13  1  0.87522007  0.62543773  0.12521429  1
  Fe  Fe14  1  0.74833102  0.75119101  0.75057262  1
  Fe  Fe15  1  0.62432684  0.62266053  0.62598092  1
  Fe  Fe16  1  0.49984564  0.74931106  0.49915466  1
  Fe  Fe17  1  0.49959370  0.25057894  0.74939150  1
  Fe  Fe18  1  0.13234287  0.62525886  0.62530492  1
  Fe  Fe19  1  0.24579014  0.24691885  -0.00039864  1
  Fe  Fe20  1  0.87598978  0.37559939  0.62574129  1
  Fe  Fe21  1  0.75172161  0.50067092  0.49880114  1
  Fe  Fe22  1  0.37650228  0.12892350  0.37353059  1
  Fe  Fe23  1  -0.00023323  0.74932193  0.25158520  1
  Fe  Fe24  1  0.49798791  0.49671947  0.74997540  1
  Fe  Fe25  1  0.12674327  0.37539613  0.37443556  1
  Fe  Fe26  1  0.62512763  0.37506777  0.62459140  1
  Fe  Fe27  1  0.36987777  0.62401534  0.62742825  1
  Fe  Fe28  1  0.87630213  0.87555123  0.87752631  1
  Fe  Fe29  1  0.37526571  0.87596062  0.37525848  1
  Fe  Fe30  1  0.00083656  0.24823473  0.24730639  1
  Fe  Fe31  1  0.62174330  0.12244324  0.87607101  1
  Fe  Fe32  1  0.49827665  0.49951927  0.00151116  1
  Fe  Fe33  1  0.75199456  0.50155006  -0.00056910  1
  Fe  Fe34  1  0.88002085  0.12579225  0.87799284  1
  Fe  Fe35  1  0.00130997  0.74960308  -0.00033260  1
  Fe  Fe36  1  0.62541066  0.12483547  0.62655438  1
  Fe  Fe37  1  -0.00094983  0.24755691  0.50062564  1
  Fe  Fe38  1  0.37278104  0.62493362  0.87201281  1
  Fe  Fe39  1  0.87480776  0.37417788  0.37473637  1
  Fe  Fe40  1  0.74734657  0.74920901  -0.00065963  1
  Fe  Fe41  1  0.62522615  0.37592503  0.87650255  1
  Fe  Fe42  1  0.74731217  0.25120365  0.24814495  1
  Fe  Fe43  1  0.25007243  0.75040711  0.25143339  1
  Fe  Fe44  1  0.00172071  0.50296526  0.49756688  1
  Fe  Fe45  1  0.49929881  0.00064686  0.24776176  1
  Fe  Fe46  1  0.75156027  0.24799193  0.50003029  1
  Fe  Fe47  1  0.24885748  0.00024484  0.24741044  1
  Fe  Fe48  1  0.87464331  0.37435741  0.12345895  1
  Fe  Fe49  1  0.74893098  0.24779048  0.00052278  1
  Fe  Fe50  1  0.87669874  0.62432631  0.87415557  1
  Fe  Fe51  1  0.00276969  0.50059407  0.75114982  1
  Fe  Fe52  1  0.00398194  0.75009424  0.74972547  1
  Fe  Fe53  1  0.12681911  0.37604902  0.62324015  1
  Fe  Fe54  1  0.87784437  0.37528152  0.87621906  1
  Fe  Fe55  1  0.37466181  0.87384055  0.62368355  1
  Fe  Fe56  1  0.87468049  0.87653219  0.12237539  1
  Fe  Fe57  1  0.12633639  0.87736087  0.87794541  1
  Fe  Fe58  1  0.12528136  0.12561194  0.37355890  1
  Fe  Fe59  1  0.00057652  0.00001045  0.75019093  1
  Fe  Fe60  1  0.62271637  0.87575796  0.12246506  1
  Fe  Fe61  1  0.50012712  0.75121010  0.74931827  1
  Fe  Fe62  1  0.12501086  0.87504447  0.37495240  1
  Fe  Fe63  1  0.62225716  0.62110295  0.12874020  1
  Fe  Fe64  1  0.62406135  0.87577325  0.37571669  1
  Fe  Fe65  1  0.25059104  0.74981540  -0.00083247  1
  Fe  Fe66  1  0.12442048  0.12524964  0.62678023  1
  Fe  Fe67  1  0.24863157  0.25194211  0.74991773  1
  Fe  Fe68  1  0.75054657  0.00072272  0.24884814  1
  Fe  Fe69  1  0.62012343  0.87785585  0.87706901  1
  Fe  Fe70  1  0.37411559  0.62474266  0.37291136  1
  Fe  Fe71  1  0.12235138  0.37434213  0.87689093  1
  Fe  Fe72  1  0.00279346  0.74849455  0.49932595  1
  Fe  Fe73  1  0.87496577  0.87543247  0.62417389  1
  Fe  Fe74  1  0.37624575  0.87279698  0.12408458  1
  Fe  Fe75  1  0.37498992  0.12836009  0.62399202  1
  Fe  Fe76  1  0.37734343  0.87700267  0.87754625  1
  Fe  Fe77  1  0.12686380  0.37612623  0.12533505  1
  Fe  Fe78  1  0.37243303  0.36945883  0.37466442  1
  Fe  Fe79  1  -0.00078496  0.50186642  0.25123688  1
  Fe  Fe80  1  0.24877453  0.50190488  -0.00061692  1
  Fe  Fe81  1  0.62247183  0.12817083  0.37273329  1
  Fe  Fe82  1  0.00024818  0.00103837  0.24596703  1
  Fe  Fe83  1  0.50211906  0.25001355  0.00428718  1
  Fe  Fe84  1  0.12530752  0.62559931  0.12582580  1
  Fe  Fe85  1  0.25067359  -0.00120771  0.74969569  1
  Fe  Fe86  1  0.37475598  0.37361171  0.87732504  1
  Fe  Fe87  1  0.49617509  0.49630968  0.49923387  1
  Fe  Fe88  1  0.87543405  0.87512965  0.37570798  1
  Fe  Fe89  1  0.87480269  0.62509915  0.62631125  1
  Co  Co90  1  0.62551657  0.12315142  0.12583861  1
  Co  Co91  1  0.62723381  0.37615292  0.37649225  1
  Co  Co92  1  0.24752519  0.24861370  0.50038545  1
  Co  Co93  1  0.25143628  0.49913124  0.25008357  1
  Co  Co94  1  0.24922193  0.75500217  0.75207831  1
  Co  Co95  1  0.49567338  0.49096447  0.24960185  1
  Co  Co96  1  0.00034172  0.25171436  0.74858506  1
  Co  Co97  1  0.12631762  0.12538252  0.12494363  1
  Co  Co98  1  0.24880623  0.49516178  0.75321087  1
  Co  Co99  1  0.62767397  0.37950595  0.12291167  1
  Co  Co100  1  0.62570768  0.87600983  0.62415584  1
  Co  Co101  1  0.24970294  0.00032968  0.00317430  1
  Co  Co102  1  0.24742010  0.24890845  0.25004901  1
  Co  Co103  1  0.50038724  0.74651620  -0.00053454  1
  Co  Co104  1  0.12617705  0.62576615  0.87541656  1
  Co  Co105  1  0.75134351  0.49842826  0.75086386  1
  Co  Co106  1  0.00231859  0.24852787  0.00325655  1
  Co  Co107  1  0.87485606  0.12617425  0.37094970  1
  Co  Co108  1  0.37329124  0.37379185  0.62543456  1
  Co  Co109  1  0.12446527  0.12391800  0.87268155  1
  Co  Co110  1  0.75394287  0.49933909  0.25037379  1
  Co  Co111  1  0.12840385  0.62517986  0.37437528  1
  Co  Co112  1  0.87365678  0.12545115  0.12368585  1
  Co  Co113  1  0.50090188  0.75149540  0.25163584  1
  Co  Co114  1  0.00338285  0.00149095  0.00346499  1
  Co  Co115  1  0.49715659  0.00295755  0.00416845  1
  Co  Co116  1  0.00030888  0.50042252  0.00119397  1
  Co  Co117  1  0.75011120  0.00082149  -0.00177867  1
  Co  Co118  1  0.12562830  0.87144096  0.12519591  1
  Co  Co119  1  0.12444893  0.87633282  0.62312378  1
  Co  Co120  1  0.50098870  0.25103067  0.50090557  1
  Co  Co121  1  0.25060623  0.75207263  0.49810580  1
  Co  Co122  1  0.50248587  0.25553347  0.24565410  1
  Co  Co123  1  0.36946979  0.37251249  0.12129468  1
  Co  Co124  1  0.25244003  0.49801736  0.49675105  1
  Co  Co125  1  0.87407155  0.62627175  0.37522394  1
  Co  Co126  1  0.87500499  0.12404423  0.62775492  1
  Co  Co127  1  0.49806946  0.00037711  0.74693033  1
