# generated using pymatgen
data_Fe45Co19
_symmetry_space_group_name_H-M   'P 1'
_cell_length_a   11.41558384
_cell_length_b   11.41420947
_cell_length_c   11.41540236
_cell_angle_alpha   89.99007719
_cell_angle_beta   90.00584741
_cell_angle_gamma   89.99627672
_symmetry_Int_Tables_number   1
_chemical_formula_structural   Fe45Co19
_chemical_formula_sum   'Fe90 Co38'
_cell_volume   1487.42535469
_cell_formula_units_Z   2
loop_
 _symmetry_equiv_pos_site_id
 _symmetry_equiv_pos_as_xyz
  1  'x, y, z'
loop_
 _atom_site_type_symbol
 _atom_site_label
 _atom_site_symmetry_multiplicity
 _atom_site_fract_x
 _atom_site_fract_y
 _atom_site_fract_z
 _atom_site_occupancy
  Fe  Fe0  1  0.62392215  0.62563165  0.37635233  1
  Fe  Fe1  1  0.50067484  0.49938137  0.74987516  1
  Fe  Fe2  1  0.24968379  0.50396659  -0.00290577  1
  Fe  Fe3  1  0.37178157  0.87380496  0.37827058  1
  Fe  Fe4  1  0.24736053  0.74612641  0.50045977  1
  Fe  Fe5  1  0.37293008  0.37360806  0.37580742  1
  Fe  Fe6  1  0.25194925  0.24962733  -0.00218699  1
  Fe  Fe7  1  0.00245508  0.00052716  0.49998157  1
  Fe  Fe8  1  0.49951087  0.49919665  0.49892248  1
  Fe  Fe9  1  0.12788532  0.87040622  0.87362841  1
  Fe  Fe10  1  0.62526830  0.62442924  0.12378720  1
  Fe  Fe11  1  0.87551346  0.37380471  0.62588159  1
  Fe  Fe12  1  0.62448753  0.37428772  0.87587610  1
  Fe  Fe13  1  0.25214469  -0.00045959  -0.00451342  1
  Fe  Fe14  1  0.87180932  0.87423714  0.62460462  1
  Fe  Fe15  1  0.49800705  0.75007394  0.25150706  1
  Fe  Fe16  1  0.74949199  0.24909898  0.74953410  1
  Fe  Fe17  1  0.13002586  0.87712134  0.62530321  1
  Fe  Fe18  1  0.62592418  0.37716727  0.62564422  1
  Fe  Fe19  1  0.62467136  0.12238356  0.62606053  1
  Fe  Fe20  1  0.62714021  0.37389058  0.37430712  1
  Fe  Fe21  1  0.00102423  0.75027322  0.50216278  1
  Fe  Fe22  1  0.12874662  0.87488704  0.12559394  1
  Fe  Fe23  1  0.62000738  0.12376315  0.87416374  1
  Fe  Fe24  1  0.87639992  0.62522132  0.37520557  1
  Fe  Fe25  1  0.62676378  0.87534119  0.37698559  1
  Fe  Fe26  1  0.75199353  0.00315676  0.25002589  1
  Fe  Fe27  1  0.12485805  0.12534754  0.62877418  1
  Fe  Fe28  1  0.37246538  0.12188021  0.62782572  1
  Fe  Fe29  1  -0.00225396  0.49917759  -0.00297463  1
  Fe  Fe30  1  0.87696135  0.12647656  0.87614404  1
  Fe  Fe31  1  0.12320794  0.13005275  0.37241651  1
  Fe  Fe32  1  0.12564461  0.37501869  0.62711948  1
  Fe  Fe33  1  0.49739186  -0.00141335  0.25112234  1
  Fe  Fe34  1  0.12109042  0.62808116  0.87464709  1
  Fe  Fe35  1  0.12518847  0.62324084  0.37522082  1
  Fe  Fe36  1  0.37482958  0.12394682  0.12512178  1
  Fe  Fe37  1  0.37983007  0.12396023  0.87155308  1
  Fe  Fe38  1  0.00021861  0.49627712  0.25173408  1
  Fe  Fe39  1  0.37328638  0.37648259  0.62720148  1
  Fe  Fe40  1  0.74783136  0.24975393  0.00168247  1
  Fe  Fe41  1  0.25141421  0.50166390  0.25311383  1
  Fe  Fe42  1  0.00099101  0.00089511  0.24871235  1
  Fe  Fe43  1  0.37556350  0.62346942  0.62360838  1
  Fe  Fe44  1  0.75308679  0.00221403  0.49715846  1
  Fe  Fe45  1  0.87506828  0.87526507  0.12459918  1
  Fe  Fe46  1  0.87696039  0.87389395  0.37488902  1
  Fe  Fe47  1  0.75021703  -0.00063881  0.75180838  1
  Fe  Fe48  1  0.12523312  0.12577533  0.12419886  1
  Fe  Fe49  1  0.50065906  0.49913375  0.00028814  1
  Fe  Fe50  1  0.49882997  0.25124461  0.24848302  1
  Fe  Fe51  1  0.87209975  0.37392953  0.12514435  1
  Fe  Fe52  1  0.74942653  0.50016042  0.24924088  1
  Fe  Fe53  1  0.24844904  0.50279891  0.75041614  1
  Fe  Fe54  1  0.49766021  -0.00131457  0.50263761  1
  Fe  Fe55  1  0.87889771  0.12928463  0.37330344  1
  Fe  Fe56  1  0.75131152  0.50225422  0.50005664  1
  Fe  Fe57  1  0.75221352  0.50269901  0.75393841  1
  Fe  Fe58  1  0.62218925  0.12537790  0.37556390  1
  Fe  Fe59  1  0.24999093  0.00084319  0.25462274  1
  Fe  Fe60  1  0.62525789  0.62646460  0.87572140  1
  Fe  Fe61  1  0.74967052  -0.00095920  0.00007421  1
  Fe  Fe62  1  0.62157810  0.87593951  0.87502895  1
  Fe  Fe63  1  0.37445008  0.37512596  0.87360788  1
  Fe  Fe64  1  0.87830724  0.12573336  0.62675957  1
  Fe  Fe65  1  0.00341374  0.74899546  0.24741480  1
  Fe  Fe66  1  0.49889204  0.25035234  0.50329175  1
  Fe  Fe67  1  0.87565853  0.62664258  0.62758196  1
  Fe  Fe68  1  0.37693709  0.62855290  0.87361689  1
  Fe  Fe69  1  0.37122372  0.87412476  0.12416156  1
  Fe  Fe70  1  0.00038333  -0.00267838  0.75097501  1
  Fe  Fe71  1  0.50202734  0.75151782  0.50332783  1
  Fe  Fe72  1  -0.00178309  0.49832995  0.75339991  1
  Fe  Fe73  1  0.62210570  0.12451236  0.12431047  1
  Fe  Fe74  1  0.37429676  0.37652784  0.12381435  1
  Fe  Fe75  1  0.87570762  0.86879237  0.87493376  1
  Fe  Fe76  1  0.12341758  0.12729884  0.87334047  1
  Fe  Fe77  1  0.00106870  0.25277293  -0.00020691  1
  Fe  Fe78  1  0.12820542  0.37657929  0.12442021  1
  Fe  Fe79  1  0.24956552  0.24882101  0.50106183  1
  Fe  Fe80  1  0.50059936  0.75440879  0.74394453  1
  Fe  Fe81  1  0.37327862  0.62620575  0.12569133  1
  Fe  Fe82  1  0.00068094  0.49591818  0.49810395  1
  Fe  Fe83  1  0.87507788  0.62592478  0.12127984  1
  Fe  Fe84  1  0.75120971  0.24909308  0.50037910  1
  Fe  Fe85  1  0.75040238  0.74913632  0.25035960  1
  Fe  Fe86  1  0.49862505  0.50062348  0.25113582  1
  Fe  Fe87  1  0.49920761  0.75187848  0.00217403  1
  Fe  Fe88  1  0.00108413  -0.00283887  -0.00120300  1
  Fe  Fe89  1  0.62508176  0.87625516  0.12655287  1
  Co  Co90  1  0.62422044  0.37594610  0.12546430  1
  Co  Co91  1  0.62455788  0.62193616  0.62532707  1
  Co  Co92  1  0.49773141  -0.00147893  0.00173834  1
  Co  Co93  1  0.00021971  0.25394570  0.24738298  1
  Co  Co94  1  0.75105652  0.50065669  -0.00169633  1
  Co  Co95  1  0.87702338  0.63149337  0.87625831  1
  Co  Co96  1  0.63129903  0.87851955  0.62129836  1
  Co  Co97  1  0.74624283  0.74977615  0.74935341  1
  Co  Co98  1  0.74760899  0.75145183  0.00061356  1
  Co  Co99  1  0.00356174  0.75114902  0.00448649  1
  Co  Co100  1  0.25098817  0.24978435  0.75137647  1
  Co  Co101  1  0.24886249  0.74785756  0.25129411  1
  Co  Co102  1  0.12527082  0.62079151  0.12566240  1
  Co  Co103  1  0.00005749  0.25212741  0.75115775  1
  Co  Co104  1  0.87270796  0.37144076  0.87527845  1
  Co  Co105  1  0.37503023  0.62643208  0.37812851  1
  Co  Co106  1  0.24675260  0.00469049  0.49514442  1
  Co  Co107  1  0.36666995  0.87715800  0.62271900  1
  Co  Co108  1  0.25028462  0.74614381  0.74823125  1
  Co  Co109  1  0.12875366  0.37304756  0.37383987  1
  Co  Co110  1  0.25009135  0.00038152  0.75516615  1
  Co  Co111  1  0.12716350  0.37519499  0.87482036  1
  Co  Co112  1  0.37580277  0.87169088  0.87465488  1
  Co  Co113  1  0.74938166  0.24685448  0.24871067  1
  Co  Co114  1  0.75076731  0.74656547  0.49970201  1
  Co  Co115  1  0.24957727  0.49932860  0.50012573  1
  Co  Co116  1  0.25180388  0.24949070  0.24793876  1
  Co  Co117  1  0.37678993  0.12604331  0.37521219  1
  Co  Co118  1  0.87142762  0.37313649  0.37450880  1
  Co  Co119  1  0.24898258  0.74733552  0.00002214  1
  Co  Co120  1  0.49812529  0.25159222  0.00017884  1
  Co  Co121  1  0.87780351  0.12484448  0.12186755  1
  Co  Co122  1  0.00107527  0.25241248  0.50064252  1
  Co  Co123  1  0.12288709  0.62163965  0.62486236  1
  Co  Co124  1  0.00209208  0.75218312  0.74562626  1
  Co  Co125  1  0.12390304  0.87341756  0.37505711  1
  Co  Co126  1  0.49905627  -0.00484652  0.74514579  1
  Co  Co127  1  0.50035352  0.25162818  0.74793826  1
