# generated using pymatgen
data_Fe45Co19
_symmetry_space_group_name_H-M   'P 1'
_cell_length_a   11.41673757
_cell_length_b   11.41555176
_cell_length_c   11.41428443
_cell_angle_alpha   89.98957913
_cell_angle_beta   90.00008098
_cell_angle_gamma   90.00109221
_symmetry_Int_Tables_number   1
_chemical_formula_structural   Fe45Co19
_chemical_formula_sum   'Fe90 Co38'
_cell_volume   1487.60492955
_cell_formula_units_Z   2
loop_
 _symmetry_equiv_pos_site_id
 _symmetry_equiv_pos_as_xyz
  1  'x, y, z'
loop_
 _atom_site_type_symbol
 _atom_site_label
 _atom_site_symmetry_multiplicity
 _atom_site_fract_x
 _atom_site_fract_y
 _atom_site_fract_z
 _atom_site_occupancy
  Fe  Fe0  1  0.50031208  0.74883193  0.25279180  1
  Fe  Fe1  1  0.24966031  0.25097469  0.50025378  1
  Fe  Fe2  1  0.24972063  0.49822779  0.25014273  1
  Fe  Fe3  1  0.50037700  0.50014688  0.25115500  1
  Fe  Fe4  1  0.87293972  0.62519372  0.37863333  1
  Fe  Fe5  1  -0.00106295  0.49834921  0.24847157  1
  Fe  Fe6  1  -0.00092355  0.00279119  0.74808640  1
  Fe  Fe7  1  0.75158731  -0.00219869  0.25114732  1
  Fe  Fe8  1  0.62479026  0.62447803  0.87227839  1
  Fe  Fe9  1  0.37695049  0.37232760  0.62545578  1
  Fe  Fe10  1  0.74619725  0.25098308  0.25187578  1
  Fe  Fe11  1  0.62506593  0.87426552  0.12432726  1
  Fe  Fe12  1  0.37424346  0.37403384  0.12474841  1
  Fe  Fe13  1  0.37416681  0.62597853  0.12478975  1
  Fe  Fe14  1  0.49912566  0.49959580  -0.00339835  1
  Fe  Fe15  1  0.37379935  0.12381453  0.62682923  1
  Fe  Fe16  1  0.87530109  0.12409384  0.12472480  1
  Fe  Fe17  1  0.62676924  0.62386255  0.62324210  1
  Fe  Fe18  1  0.12541155  0.12582494  0.37449023  1
  Fe  Fe19  1  0.12416484  0.37433175  0.37504672  1
  Fe  Fe20  1  0.37581748  0.87296787  0.37781535  1
  Fe  Fe21  1  0.12180664  0.87449289  0.87185456  1
  Fe  Fe22  1  0.11758523  0.87503568  0.38137181  1
  Fe  Fe23  1  0.50227060  0.25110303  -0.00210804  1
  Fe  Fe24  1  0.00007027  0.25127084  0.24926586  1
  Fe  Fe25  1  0.87547238  0.12714493  0.87522351  1
  Fe  Fe26  1  0.25282205  0.49825225  0.49931380  1
  Fe  Fe27  1  0.25101470  0.74955769  -0.00206541  1
  Fe  Fe28  1  0.12533438  0.12521242  0.62587198  1
  Fe  Fe29  1  0.75269256  0.49446203  0.75014656  1
  Fe  Fe30  1  0.62833344  0.12478777  0.62583505  1
  Fe  Fe31  1  0.87426679  0.62527969  0.12432060  1
  Fe  Fe32  1  0.24915326  0.25269727  -0.00171547  1
  Fe  Fe33  1  0.12602470  0.62470921  0.37740007  1
  Fe  Fe34  1  0.00056141  0.25153323  -0.00008847  1
  Fe  Fe35  1  0.75238237  0.25494935  0.75074182  1
  Fe  Fe36  1  0.49826595  0.49919181  0.74926188  1
  Fe  Fe37  1  0.87417565  0.12989158  0.62571890  1
  Fe  Fe38  1  0.25379398  0.50001022  0.75077272  1
  Fe  Fe39  1  0.49948606  -0.00013978  0.25051319  1
  Fe  Fe40  1  0.75396205  -0.00176583  0.50153658  1
  Fe  Fe41  1  0.24895163  -0.00231601  0.50245932  1
  Fe  Fe42  1  0.00083126  0.24889317  0.50079613  1
  Fe  Fe43  1  0.62424768  0.62525561  0.12372064  1
  Fe  Fe44  1  0.87676994  0.87568735  0.12527998  1
  Fe  Fe45  1  0.24783368  0.75213143  0.74597307  1
  Fe  Fe46  1  0.50413466  0.24993890  0.49914408  1
  Fe  Fe47  1  0.75098811  0.75142423  0.74638127  1
  Fe  Fe48  1  -0.00052244  0.74864496  -0.00047743  1
  Fe  Fe49  1  0.12536956  0.12476859  0.12626914  1
  Fe  Fe50  1  0.87099228  0.37517961  0.12037031  1
  Fe  Fe51  1  0.50110195  -0.00184494  0.50432676  1
  Fe  Fe52  1  0.87498865  0.62265677  0.87462496  1
  Fe  Fe53  1  0.12173296  0.37956228  0.87343449  1
  Fe  Fe54  1  0.87376289  0.12586669  0.37417295  1
  Fe  Fe55  1  0.74911021  0.49954387  0.24901263  1
  Fe  Fe56  1  0.62526296  0.12387621  0.12538176  1
  Fe  Fe57  1  0.62708960  0.12425903  0.87298409  1
  Fe  Fe58  1  0.37399097  0.62830908  0.62181293  1
  Fe  Fe59  1  0.37522803  0.87465451  0.12520902  1
  Fe  Fe60  1  0.37514183  0.87702991  0.86971669  1
  Fe  Fe61  1  0.49974011  -0.00001326  -0.00295387  1
  Fe  Fe62  1  0.50164027  0.75210869  0.74610811  1
  Fe  Fe63  1  0.12561417  0.62422114  0.12410863  1
  Fe  Fe64  1  0.49978488  0.75105873  -0.00289728  1
  Fe  Fe65  1  0.00032619  0.74320721  0.74230697  1
  Fe  Fe66  1  0.12268107  0.87599459  0.12394584  1
  Fe  Fe67  1  0.12571653  0.62238456  0.87437995  1
  Fe  Fe68  1  0.74985206  0.74958255  -0.00103406  1
  Fe  Fe69  1  0.75190471  -0.00054033  -0.00180326  1
  Fe  Fe70  1  0.24865363  -0.00059515  0.25189167  1
  Fe  Fe71  1  0.74802965  0.49382775  0.50319860  1
  Fe  Fe72  1  0.75029048  0.75087087  0.25239508  1
  Fe  Fe73  1  0.24962078  -0.00147928  -0.00235280  1
  Fe  Fe74  1  0.49978420  0.24803454  0.75183403  1
  Fe  Fe75  1  0.12470464  0.12424063  0.87490481  1
  Fe  Fe76  1  0.87432849  0.37404730  0.37827398  1
  Fe  Fe77  1  -0.00073969  0.74953871  0.25158386  1
  Fe  Fe78  1  0.87720141  0.87385410  0.87164999  1
  Fe  Fe79  1  0.62540154  0.87590628  0.37713563  1
  Fe  Fe80  1  0.24862414  0.75139435  0.25294818  1
  Fe  Fe81  1  0.62483548  0.62346656  0.37911043  1
  Fe  Fe82  1  0.62665946  0.87723615  0.87149175  1
  Fe  Fe83  1  0.12298763  0.37652229  0.62702193  1
  Fe  Fe84  1  0.37526735  0.12452896  0.37676153  1
  Fe  Fe85  1  0.50301073  0.24942164  0.25241898  1
  Fe  Fe86  1  0.37699810  0.37405969  0.37546400  1
  Fe  Fe87  1  0.37404445  0.12575477  0.12453742  1
  Fe  Fe88  1  -0.00018011  0.50213740  0.50366598  1
  Fe  Fe89  1  0.24919762  0.24966293  0.75104763  1
  Co  Co90  1  0.62609995  0.37600662  0.12416156  1
  Co  Co91  1  0.75431122  0.00061739  0.74961710  1
  Co  Co92  1  -0.00341125  0.50325749  0.74652381  1
  Co  Co93  1  0.50069115  0.00284468  0.74919989  1
  Co  Co94  1  0.25196438  0.50049691  -0.00118044  1
  Co  Co95  1  0.74739656  0.25168426  0.49978497  1
  Co  Co96  1  -0.00125764  0.74237254  0.50586102  1
  Co  Co97  1  -0.00337057  0.00669075  0.50245037  1
  Co  Co98  1  0.11915923  0.87702637  0.62309207  1
  Co  Co99  1  0.37325975  0.12485989  0.87519458  1
  Co  Co100  1  0.00052195  0.24980705  0.75081634  1
  Co  Co101  1  0.25075743  0.24989150  0.25205844  1
  Co  Co102  1  0.62632616  0.12097127  0.37640005  1
  Co  Co103  1  0.74819435  0.24824809  -0.00162677  1
  Co  Co104  1  0.87747543  0.37641066  0.87799880  1
  Co  Co105  1  0.87875819  0.87399786  0.62454848  1
  Co  Co106  1  0.37461681  0.87578872  0.62740645  1
  Co  Co107  1  0.49831442  0.49994536  0.50230512  1
  Co  Co108  1  0.12586290  0.37466750  0.12507118  1
  Co  Co109  1  0.62462265  0.37774853  0.37562315  1
  Co  Co110  1  0.00086442  0.00096847  0.25078635  1
  Co  Co111  1  0.62241859  0.37322902  0.62713169  1
  Co  Co112  1  0.37508786  0.37334321  0.87373373  1
  Co  Co113  1  0.88005522  0.87324132  0.37830550  1
  Co  Co114  1  0.13094737  0.62070652  0.62410088  1
  Co  Co115  1  0.86798396  0.62246890  0.62285456  1
  Co  Co116  1  0.74814402  0.50303476  -0.00205719  1
  Co  Co117  1  0.37522855  0.62839299  0.87205713  1
  Co  Co118  1  0.87891849  0.37259372  0.62345904  1
  Co  Co119  1  0.50212742  0.75103660  0.50180859  1
  Co  Co120  1  0.62787065  0.87759241  0.62682147  1
  Co  Co121  1  -0.00090158  0.00018513  -0.00188001  1
  Co  Co122  1  0.74938240  0.75330109  0.50066545  1
  Co  Co123  1  0.24825033  0.75285298  0.50090414  1
  Co  Co124  1  0.37372386  0.62574773  0.37643279  1
  Co  Co125  1  0.24725837  0.00054904  0.74927411  1
  Co  Co126  1  0.00003647  0.50141007  0.00220261  1
  Co  Co127  1  0.62543573  0.37550615  0.87427764  1
