# generated using pymatgen
data_Fe45Co19
_symmetry_space_group_name_H-M   'P 1'
_cell_length_a   11.41545045
_cell_length_b   11.41451338
_cell_length_c   11.41529806
_cell_angle_alpha   89.98730022
_cell_angle_beta   90.00188117
_cell_angle_gamma   89.99908995
_symmetry_Int_Tables_number   1
_chemical_formula_structural   Fe45Co19
_chemical_formula_sum   'Fe90 Co38'
_cell_volume   1487.43398387
_cell_formula_units_Z   2
loop_
 _symmetry_equiv_pos_site_id
 _symmetry_equiv_pos_as_xyz
  1  'x, y, z'
loop_
 _atom_site_type_symbol
 _atom_site_label
 _atom_site_symmetry_multiplicity
 _atom_site_fract_x
 _atom_site_fract_y
 _atom_site_fract_z
 _atom_site_occupancy
  Fe  Fe0  1  0.00031507  -0.00053866  0.74833737  1
  Fe  Fe1  1  0.12645865  0.62855716  0.12633990  1
  Fe  Fe2  1  0.49890002  0.24785242  0.74946800  1
  Fe  Fe3  1  0.25127465  -0.00317109  0.25033885  1
  Fe  Fe4  1  0.75133498  0.25047387  0.75152492  1
  Fe  Fe5  1  0.24989064  0.49903945  0.49597678  1
  Fe  Fe6  1  0.37352898  0.12379331  0.12413802  1
  Fe  Fe7  1  0.37320120  0.12279022  0.87432405  1
  Fe  Fe8  1  0.62061750  0.62621704  0.37495844  1
  Fe  Fe9  1  0.74957959  0.24974197  0.00003681  1
  Fe  Fe10  1  0.25041111  0.49962170  0.75585309  1
  Fe  Fe11  1  0.75070885  0.25086813  0.25002932  1
  Fe  Fe12  1  0.24769237  0.25152900  0.75437131  1
  Fe  Fe13  1  0.25023860  0.25233317  0.25211166  1
  Fe  Fe14  1  0.25273810  0.75001366  0.49923258  1
  Fe  Fe15  1  0.00064007  0.74855072  0.74850578  1
  Fe  Fe16  1  0.87966734  0.37774765  0.87692731  1
  Fe  Fe17  1  0.75256811  0.50096580  0.75023458  1
  Fe  Fe18  1  0.25187752  0.75094438  0.75053854  1
  Fe  Fe19  1  0.62598213  0.62593495  0.62476479  1
  Fe  Fe20  1  0.12524936  0.87269263  0.37493487  1
  Fe  Fe21  1  0.74832864  -0.00155210  0.00161914  1
  Fe  Fe22  1  0.12424229  0.12517069  0.37370858  1
  Fe  Fe23  1  0.50082200  0.24817683  0.00014198  1
  Fe  Fe24  1  0.24730102  -0.00186153  0.00088061  1
  Fe  Fe25  1  0.49919186  0.50273503  -0.00106202  1
  Fe  Fe26  1  0.87945693  0.62529739  0.87643471  1
  Fe  Fe27  1  0.12318064  0.37434197  0.12437160  1
  Fe  Fe28  1  0.37348349  0.37633201  0.62507408  1
  Fe  Fe29  1  0.49790831  0.50249644  0.74909818  1
  Fe  Fe30  1  0.62450438  0.37515124  0.12404732  1
  Fe  Fe31  1  0.00027058  -0.00247415  0.50190410  1
  Fe  Fe32  1  0.37436516  0.12287675  0.37587914  1
  Fe  Fe33  1  0.62415780  0.87415270  0.62558183  1
  Fe  Fe34  1  0.12529675  0.37673730  0.62548550  1
  Fe  Fe35  1  0.62521830  0.12464202  0.87385557  1
  Fe  Fe36  1  0.62134839  0.87213210  0.37567195  1
  Fe  Fe37  1  0.12408937  0.87494212  0.87405356  1
  Fe  Fe38  1  0.74948895  -0.00310084  0.24872909  1
  Fe  Fe39  1  0.25132617  0.49827742  0.25100553  1
  Fe  Fe40  1  0.74846886  0.49882581  0.49875439  1
  Fe  Fe41  1  0.87436853  0.12347236  0.37490543  1
  Fe  Fe42  1  0.49809200  -0.00303241  0.24901382  1
  Fe  Fe43  1  0.62107603  0.37599324  0.37427320  1
  Fe  Fe44  1  0.24999389  0.25051301  0.49826792  1
  Fe  Fe45  1  0.87622077  0.12291663  0.87672513  1
  Fe  Fe46  1  0.49871217  0.24966909  0.24844465  1
  Fe  Fe47  1  0.62604851  0.37351782  0.62603006  1
  Fe  Fe48  1  0.74903382  -0.00036321  0.74874161  1
  Fe  Fe49  1  0.12541171  0.12664702  0.12532286  1
  Fe  Fe50  1  0.00347046  0.50361464  0.49834237  1
  Fe  Fe51  1  0.50170482  -0.00005391  0.00084533  1
  Fe  Fe52  1  0.87470144  0.62671258  0.62166093  1
  Fe  Fe53  1  0.37555052  0.37498916  0.12314653  1
  Fe  Fe54  1  0.87280562  0.12608573  0.62434010  1
  Fe  Fe55  1  0.37559014  0.62599229  0.12225702  1
  Fe  Fe56  1  0.87704581  0.37666748  0.37421744  1
  Fe  Fe57  1  0.24781091  0.74958379  -0.00086902  1
  Fe  Fe58  1  0.74882691  -0.00076297  0.50189370  1
  Fe  Fe59  1  0.37630006  0.87971883  0.62133436  1
  Fe  Fe60  1  0.75157103  0.74864580  0.75214941  1
  Fe  Fe61  1  0.74821567  0.50256882  0.24998386  1
  Fe  Fe62  1  0.62384949  0.87230329  0.87431001  1
  Fe  Fe63  1  0.75070415  0.50347908  -0.00045442  1
  Fe  Fe64  1  0.00204934  0.25007982  0.75302843  1
  Fe  Fe65  1  0.87362314  0.63051448  0.12550871  1
  Fe  Fe66  1  0.37344877  0.12021142  0.62544757  1
  Fe  Fe67  1  0.00174797  -0.00274783  0.00329842  1
  Fe  Fe68  1  0.37605024  0.87521691  0.87707340  1
  Fe  Fe69  1  0.37896111  0.62289187  0.37602523  1
  Fe  Fe70  1  0.12795625  0.62552129  0.62505501  1
  Fe  Fe71  1  0.49964103  0.24864556  0.50173894  1
  Fe  Fe72  1  0.62546929  0.87017170  0.12456835  1
  Fe  Fe73  1  0.00106879  0.24971921  0.49848634  1
  Fe  Fe74  1  0.00171493  0.50223445  0.25023302  1
  Fe  Fe75  1  0.87562523  0.87428252  0.87591750  1
  Fe  Fe76  1  0.62442721  0.62917193  0.12536780  1
  Fe  Fe77  1  0.49660873  0.74822624  0.74860541  1
  Fe  Fe78  1  0.12735069  0.12363305  0.62715849  1
  Fe  Fe79  1  0.87661618  0.37400358  0.12478192  1
  Fe  Fe80  1  0.25693626  0.75307955  0.25147567  1
  Fe  Fe81  1  0.75272014  0.75127369  0.49711378  1
  Fe  Fe82  1  0.62400716  0.37732175  0.87433289  1
  Fe  Fe83  1  0.00000381  -0.00241745  0.24728465  1
  Fe  Fe84  1  0.24683183  0.25267303  -0.00418286  1
  Fe  Fe85  1  0.87464309  0.12518970  0.12492843  1
  Fe  Fe86  1  0.62570938  0.12577797  0.37401966  1
  Fe  Fe87  1  0.12541497  0.87382937  0.62357865  1
  Fe  Fe88  1  -0.00354106  0.75114237  0.25292612  1
  Fe  Fe89  1  0.87609060  0.37459628  0.62341998  1
  Co  Co90  1  0.24639601  -0.00020806  0.49851507  1
  Co  Co91  1  0.25028934  -0.00317565  0.75035540  1
  Co  Co92  1  0.74968211  0.74816503  -0.00380168  1
  Co  Co93  1  0.12353589  0.37489579  0.37384640  1
  Co  Co94  1  0.49955200  0.50138917  0.24644210  1
  Co  Co95  1  0.12760888  0.62914376  0.37263095  1
  Co  Co96  1  0.50066492  0.74859586  -0.00103617  1
  Co  Co97  1  0.49580046  0.75218373  0.24915108  1
  Co  Co98  1  -0.00075087  0.24933429  0.25047055  1
  Co  Co99  1  0.37106323  0.62169437  0.62487139  1
  Co  Co100  1  -0.00076536  0.74974196  0.49912752  1
  Co  Co101  1  0.87607194  0.87782342  0.37520916  1
  Co  Co102  1  0.62523829  0.12479109  0.12689947  1
  Co  Co103  1  0.37791878  0.37527487  0.87606748  1
  Co  Co104  1  0.37854634  0.37622602  0.37517499  1
  Co  Co105  1  0.74972052  0.25172490  0.49745210  1
  Co  Co106  1  0.75035072  0.75006090  0.25424725  1
  Co  Co107  1  0.62737501  0.12626077  0.62610109  1
  Co  Co108  1  0.49712983  0.74790908  0.50368187  1
  Co  Co109  1  0.00127296  0.24812955  -0.00161664  1
  Co  Co110  1  0.12646261  0.87145109  0.12888223  1
  Co  Co111  1  0.50078465  -0.00050635  0.75017576  1
  Co  Co112  1  0.37533187  0.87585195  0.12034817  1
  Co  Co113  1  0.00208192  0.75160880  0.00036754  1
  Co  Co114  1  0.37679677  0.87676868  0.37970351  1
  Co  Co115  1  -0.00007557  0.50421229  0.00601105  1
  Co  Co116  1  -0.00094852  0.50273996  0.74567818  1
  Co  Co117  1  0.50084262  0.49989334  0.50408903  1
  Co  Co118  1  0.24923607  0.50003055  0.00011850  1
  Co  Co119  1  0.87453703  0.62308284  0.37606145  1
  Co  Co120  1  0.87415435  0.87349101  0.62602774  1
  Co  Co121  1  0.62321781  0.62380674  0.87227436  1
  Co  Co122  1  0.11935047  0.38082899  0.87662962  1
  Co  Co123  1  0.12350253  0.62335455  0.87470630  1
  Co  Co124  1  0.37332470  0.62596322  0.87645038  1
  Co  Co125  1  0.87166315  0.87149557  0.12398472  1
  Co  Co126  1  0.12550341  0.12114791  0.87479312  1
  Co  Co127  1  0.50392880  0.00244059  0.49965333  1
