# generated using pymatgen
data_Fe45Co19
_symmetry_space_group_name_H-M   'P 1'
_cell_length_a   11.41505095
_cell_length_b   11.41460802
_cell_length_c   11.41559915
_cell_angle_alpha   89.99171977
_cell_angle_beta   90.00008803
_cell_angle_gamma   90.00698142
_symmetry_Int_Tables_number   1
_chemical_formula_structural   Fe45Co19
_chemical_formula_sum   'Fe90 Co38'
_cell_volume   1487.43350395
_cell_formula_units_Z   2
loop_
 _symmetry_equiv_pos_site_id
 _symmetry_equiv_pos_as_xyz
  1  'x, y, z'
loop_
 _atom_site_type_symbol
 _atom_site_label
 _atom_site_symmetry_multiplicity
 _atom_site_fract_x
 _atom_site_fract_y
 _atom_site_fract_z
 _atom_site_occupancy
  Fe  Fe0  1  0.37421972  0.12028471  0.12347120  1
  Fe  Fe1  1  -0.00086247  0.75158988  0.74880493  1
  Fe  Fe2  1  0.00201609  -0.00522379  0.25387275  1
  Fe  Fe3  1  0.12549782  0.87339161  0.87487104  1
  Fe  Fe4  1  0.00062505  0.24936746  0.49957853  1
  Fe  Fe5  1  0.62478690  0.37631372  0.87663092  1
  Fe  Fe6  1  0.37529438  0.37821311  0.12497327  1
  Fe  Fe7  1  0.00187262  0.49844378  0.75191441  1
  Fe  Fe8  1  0.25220467  0.74959822  0.75101784  1
  Fe  Fe9  1  0.62604754  0.87546412  0.62235754  1
  Fe  Fe10  1  0.00196788  0.50098480  0.00167652  1
  Fe  Fe11  1  0.87433517  0.12476133  0.62615875  1
  Fe  Fe12  1  0.50071963  -0.00253013  0.75137521  1
  Fe  Fe13  1  0.00105385  -0.00137966  -0.00065361  1
  Fe  Fe14  1  0.37313125  0.87721497  0.12542571  1
  Fe  Fe15  1  0.87622558  0.62529240  0.87419290  1
  Fe  Fe16  1  0.87716741  0.62509019  0.62415357  1
  Fe  Fe17  1  0.49960130  0.49929248  0.50055956  1
  Fe  Fe18  1  0.00339790  0.49931669  0.24903454  1
  Fe  Fe19  1  0.62520221  0.37449658  0.12434718  1
  Fe  Fe20  1  0.12615733  0.37447709  0.62399917  1
  Fe  Fe21  1  0.62594643  0.87541999  0.87760590  1
  Fe  Fe22  1  0.37470507  0.37504422  0.37461144  1
  Fe  Fe23  1  0.49926224  0.75106006  0.24922256  1
  Fe  Fe24  1  0.62606401  0.87478240  0.12296485  1
  Fe  Fe25  1  0.75041285  -0.00330163  0.24987701  1
  Fe  Fe26  1  0.00056613  0.25147969  0.24831850  1
  Fe  Fe27  1  0.24739067  0.00502528  0.75518836  1
  Fe  Fe28  1  0.74954660  0.24901867  0.49891660  1
  Fe  Fe29  1  0.87472281  0.12324309  0.87366724  1
  Fe  Fe30  1  0.74891650  0.50112108  0.49992275  1
  Fe  Fe31  1  0.12439540  0.87097898  0.12659093  1
  Fe  Fe32  1  0.49708897  0.74801408  0.00036342  1
  Fe  Fe33  1  0.87517157  0.37678501  0.37442914  1
  Fe  Fe34  1  0.00163872  0.50169325  0.49829583  1
  Fe  Fe35  1  0.37324647  0.87741998  0.62513735  1
  Fe  Fe36  1  0.87631307  0.12405389  0.37359325  1
  Fe  Fe37  1  0.25000709  0.49851517  0.75130553  1
  Fe  Fe38  1  0.74934383  0.75123351  0.74890143  1
  Fe  Fe39  1  0.50047318  0.25230222  0.74905370  1
  Fe  Fe40  1  0.12734234  0.37417848  0.37436074  1
  Fe  Fe41  1  0.12461841  0.12689313  0.12205906  1
  Fe  Fe42  1  0.62232449  0.12784557  0.37156658  1
  Fe  Fe43  1  0.12550355  0.37034643  0.88035611  1
  Fe  Fe44  1  0.37552158  0.12546727  0.37219164  1
  Fe  Fe45  1  0.00160015  -0.00008888  0.75006703  1
  Fe  Fe46  1  0.24940542  0.24765419  0.49989130  1
  Fe  Fe47  1  0.37366164  0.12491194  0.62749466  1
  Fe  Fe48  1  0.74960502  0.50297201  0.00202530  1
  Fe  Fe49  1  0.62474002  0.12281754  0.87579891  1
  Fe  Fe50  1  0.62657629  0.62703345  0.37205969  1
  Fe  Fe51  1  0.75203135  0.24720749  0.00073686  1
  Fe  Fe52  1  0.25177409  0.74827135  0.50009078  1
  Fe  Fe53  1  0.37239437  0.87746858  0.37302971  1
  Fe  Fe54  1  0.25113401  0.74788208  0.00173790  1
  Fe  Fe55  1  0.25064977  0.25011292  0.24700643  1
  Fe  Fe56  1  0.12495988  0.62572679  0.62588089  1
  Fe  Fe57  1  0.74899716  0.49903084  0.74961277  1
  Fe  Fe58  1  0.49974029  0.24769983  0.00301950  1
  Fe  Fe59  1  0.62764929  0.87398810  0.37723631  1
  Fe  Fe60  1  0.87937279  0.62908332  0.12753082  1
  Fe  Fe61  1  0.87527858  0.12141673  0.12662450  1
  Fe  Fe62  1  0.87470649  0.37529079  0.87540525  1
  Fe  Fe63  1  0.62631128  0.12550957  0.62694974  1
  Fe  Fe64  1  0.75185198  0.74883763  0.00189517  1
  Fe  Fe65  1  0.75055093  0.25040876  0.24904181  1
  Fe  Fe66  1  0.62065191  0.62425038  0.87412408  1
  Fe  Fe67  1  0.37671693  0.62464407  0.62865836  1
  Fe  Fe68  1  0.49814233  0.75068983  0.49933229  1
  Fe  Fe69  1  0.87532813  0.37648838  0.12495239  1
  Fe  Fe70  1  0.74916404  0.50202961  0.24840619  1
  Fe  Fe71  1  0.12751504  0.62707778  0.37180284  1
  Fe  Fe72  1  0.62083737  0.62515447  0.62832554  1
  Fe  Fe73  1  0.50028711  0.00201413  0.49885689  1
  Fe  Fe74  1  0.87384814  0.87498336  0.87598514  1
  Fe  Fe75  1  0.00252538  0.24929694  0.75083015  1
  Fe  Fe76  1  0.37490070  0.37469549  0.87648611  1
  Fe  Fe77  1  0.87385359  0.37428501  0.62556852  1
  Fe  Fe78  1  0.00310464  -0.00059061  0.49653543  1
  Fe  Fe79  1  0.87268542  0.87548885  0.61902891  1
  Fe  Fe80  1  0.50133489  0.49970925  0.24792634  1
  Fe  Fe81  1  0.24843318  0.00331266  0.49677288  1
  Fe  Fe82  1  0.37330829  0.37423649  0.62377520  1
  Fe  Fe83  1  0.37358408  0.62292101  0.37147712  1
  Fe  Fe84  1  0.37466277  0.87683944  0.87644465  1
  Fe  Fe85  1  0.12543578  0.62626484  0.87527290  1
  Fe  Fe86  1  0.62241542  0.37201425  0.37477434  1
  Fe  Fe87  1  0.50150979  0.00003757  0.24839912  1
  Fe  Fe88  1  0.24878844  0.50326527  0.00399480  1
  Fe  Fe89  1  0.12691178  0.87565231  0.62329084  1
  Co  Co90  1  0.12525356  0.12379351  0.62449666  1
  Co  Co91  1  0.74746736  0.00614209  0.49827530  1
  Co  Co92  1  0.25530349  0.24808429  0.00188804  1
  Co  Co93  1  0.74823408  0.74479432  0.50146491  1
  Co  Co94  1  0.50042474  0.00006184  0.00121029  1
  Co  Co95  1  0.37653637  0.62337405  0.87379343  1
  Co  Co96  1  0.12330258  0.12901231  0.88013072  1
  Co  Co97  1  0.86949716  0.87473877  0.38163443  1
  Co  Co98  1  0.62361284  0.62718431  0.12501562  1
  Co  Co99  1  0.25319129  0.74963051  0.24828666  1
  Co  Co100  1  0.12460378  0.12798979  0.37290718  1
  Co  Co101  1  -0.00701230  0.24931924  0.00120825  1
  Co  Co102  1  0.75151121  0.00056470  0.00092097  1
  Co  Co103  1  0.24737742  -0.00124377  -0.00146646  1
  Co  Co104  1  0.49894030  0.75496671  0.75095647  1
  Co  Co105  1  0.00212590  0.75011064  0.49683077  1
  Co  Co106  1  0.49935775  0.50101235  0.00171407  1
  Co  Co107  1  0.13158787  0.87244367  0.37527154  1
  Co  Co108  1  0.75272144  0.75250001  0.24782329  1
  Co  Co109  1  0.49684477  0.24959038  0.24507348  1
  Co  Co110  1  0.25014454  0.50194589  0.50016912  1
  Co  Co111  1  0.24820017  0.24876242  0.75132601  1
  Co  Co112  1  0.24652604  0.49839986  0.24598131  1
  Co  Co113  1  0.37646592  0.62379811  0.12747840  1
  Co  Co114  1  0.62687446  0.12417253  0.12604778  1
  Co  Co115  1  0.00017886  0.75054650  -0.00332086  1
  Co  Co116  1  0.49929141  0.24857148  0.50226593  1
  Co  Co117  1  0.62681993  0.37475436  0.62318015  1
  Co  Co118  1  -0.00424362  0.75518914  0.25814265  1
  Co  Co119  1  0.49856857  0.49514916  0.74929069  1
  Co  Co120  1  0.12443386  0.37056508  0.12118886  1
  Co  Co121  1  0.37803387  0.12483740  0.87472353  1
  Co  Co122  1  0.75006696  -0.00271674  0.74996218  1
  Co  Co123  1  0.87769558  0.87400052  0.12333038  1
  Co  Co124  1  0.74918541  0.25053788  0.75204130  1
  Co  Co125  1  0.12113156  0.63098021  0.12806974  1
  Co  Co126  1  0.24605733  0.00164448  0.24869257  1
  Co  Co127  1  0.87356779  0.62371687  0.37357638  1
