# generated using pymatgen
data_Fe45Co19
_symmetry_space_group_name_H-M   'P 1'
_cell_length_a   11.41548484
_cell_length_b   11.41478181
_cell_length_c   11.41389806
_cell_angle_alpha   89.99370631
_cell_angle_beta   89.99119516
_cell_angle_gamma   89.99210317
_symmetry_Int_Tables_number   1
_chemical_formula_structural   Fe45Co19
_chemical_formula_sum   'Fe90 Co38'
_cell_volume   1487.29101361
_cell_formula_units_Z   2
loop_
 _symmetry_equiv_pos_site_id
 _symmetry_equiv_pos_as_xyz
  1  'x, y, z'
loop_
 _atom_site_type_symbol
 _atom_site_label
 _atom_site_symmetry_multiplicity
 _atom_site_fract_x
 _atom_site_fract_y
 _atom_site_fract_z
 _atom_site_occupancy
  Fe  Fe0  1  0.37533829  0.87498403  0.62634984  1
  Fe  Fe1  1  0.87683139  0.12336012  0.87659750  1
  Fe  Fe2  1  0.87322117  0.12735694  0.37821158  1
  Fe  Fe3  1  0.87689879  0.87606377  0.87472391  1
  Fe  Fe4  1  0.25247121  0.75349714  0.00092878  1
  Fe  Fe5  1  0.74810666  0.00138653  0.50290011  1
  Fe  Fe6  1  0.49672183  -0.00199405  -0.00348207  1
  Fe  Fe7  1  -0.00041322  0.50178906  0.50314659  1
  Fe  Fe8  1  0.25079877  0.25105874  0.50223452  1
  Fe  Fe9  1  -0.00116668  0.25081223  0.50091252  1
  Fe  Fe10  1  0.75043282  0.74848587  0.24964971  1
  Fe  Fe11  1  0.25096570  0.75028073  0.49857335  1
  Fe  Fe12  1  -0.00106366  0.50292594  0.24919703  1
  Fe  Fe13  1  0.50230380  0.49944268  -0.00309699  1
  Fe  Fe14  1  0.00162473  0.00081894  0.74867771  1
  Fe  Fe15  1  0.12256539  0.37498817  0.37334031  1
  Fe  Fe16  1  0.12560668  0.37655251  0.62717636  1
  Fe  Fe17  1  0.87810475  0.37311766  0.12514803  1
  Fe  Fe18  1  0.87622819  0.37588625  0.87377003  1
  Fe  Fe19  1  0.62423585  0.12445209  0.12365701  1
  Fe  Fe20  1  0.50130942  0.00126046  0.25225796  1
  Fe  Fe21  1  0.37467434  0.87644960  0.37418167  1
  Fe  Fe22  1  -0.00036104  0.75032888  -0.00011826  1
  Fe  Fe23  1  0.12215903  0.37240870  0.12706761  1
  Fe  Fe24  1  0.75112284  0.24948122  -0.00112927  1
  Fe  Fe25  1  0.87863032  0.12665927  0.12264286  1
  Fe  Fe26  1  0.12474289  0.87424741  0.62561881  1
  Fe  Fe27  1  0.49781469  0.25043022  -0.00118024  1
  Fe  Fe28  1  0.87482686  0.37551904  0.62631442  1
  Fe  Fe29  1  0.12441501  0.87415240  0.12668658  1
  Fe  Fe30  1  0.75030816  0.75167500  0.74948312  1
  Fe  Fe31  1  0.50204099  0.24760481  0.50109430  1
  Fe  Fe32  1  0.24855146  -0.00166778  0.25038735  1
  Fe  Fe33  1  0.62339870  0.37483735  0.62672694  1
  Fe  Fe34  1  0.12520510  0.37780796  0.87204111  1
  Fe  Fe35  1  0.12681701  0.62781599  0.12641725  1
  Fe  Fe36  1  0.74883482  0.49829201  -0.00163091  1
  Fe  Fe37  1  0.25004340  0.25045631  0.25067952  1
  Fe  Fe38  1  0.37504453  0.12408163  0.37755684  1
  Fe  Fe39  1  0.37608059  0.37621284  0.37434230  1
  Fe  Fe40  1  0.49792187  0.24830036  0.74964126  1
  Fe  Fe41  1  0.62633866  0.87343232  0.37529152  1
  Fe  Fe42  1  0.12517814  0.62872420  0.37374802  1
  Fe  Fe43  1  0.74938054  0.75224556  -0.00166759  1
  Fe  Fe44  1  0.50005824  0.74953354  0.49909230  1
  Fe  Fe45  1  0.74934141  0.24774591  0.74852472  1
  Fe  Fe46  1  0.37313380  0.12286592  0.12325220  1
  Fe  Fe47  1  0.75058956  0.00138200  0.24879520  1
  Fe  Fe48  1  0.87458209  0.87426953  0.37717525  1
  Fe  Fe49  1  0.37410149  0.62242158  0.37013193  1
  Fe  Fe50  1  0.75018933  0.50063325  0.25060569  1
  Fe  Fe51  1  0.00098066  0.24895232  0.75116448  1
  Fe  Fe52  1  0.00040775  0.50036533  -0.00007238  1
  Fe  Fe53  1  0.24973787  -0.00100543  0.50296158  1
  Fe  Fe54  1  0.24679096  0.74784156  0.75129210  1
  Fe  Fe55  1  -0.00019610  0.00022453  0.50174084  1
  Fe  Fe56  1  0.75134228  0.00039505  0.74984667  1
  Fe  Fe57  1  0.74904190  0.49945851  0.49830378  1
  Fe  Fe58  1  0.37527717  0.37709566  0.87074971  1
  Fe  Fe59  1  0.12547358  0.12480332  0.37700605  1
  Fe  Fe60  1  0.62489501  0.37403242  0.12439625  1
  Fe  Fe61  1  0.74688223  0.50023338  0.75240871  1
  Fe  Fe62  1  0.62713918  0.62604246  0.62393224  1
  Fe  Fe63  1  0.50052820  0.50148526  0.50013138  1
  Fe  Fe64  1  0.25023391  0.25194669  -0.00030791  1
  Fe  Fe65  1  0.12482244  0.12528887  0.12257188  1
  Fe  Fe66  1  0.75167991  0.25036208  0.25093347  1
  Fe  Fe67  1  0.24896590  0.49967878  0.00036507  1
  Fe  Fe68  1  0.49891333  0.24906785  0.24986578  1
  Fe  Fe69  1  -0.00017201  -0.00025947  0.25115849  1
  Fe  Fe70  1  0.37364430  0.62286017  0.62642721  1
  Fe  Fe71  1  0.62451210  0.87665618  0.12321448  1
  Fe  Fe72  1  0.49843491  0.75187922  -0.00094074  1
  Fe  Fe73  1  0.87397222  0.62640097  0.37623102  1
  Fe  Fe74  1  0.12904595  0.12094295  0.87674580  1
  Fe  Fe75  1  0.00053414  0.74518121  0.74797647  1
  Fe  Fe76  1  0.49872007  0.74792965  0.24894557  1
  Fe  Fe77  1  0.37541448  0.37843117  0.12707855  1
  Fe  Fe78  1  0.62492799  0.37344591  0.37415908  1
  Fe  Fe79  1  0.87477553  0.62407473  0.87526700  1
  Fe  Fe80  1  0.62398137  0.87643402  0.62555773  1
  Fe  Fe81  1  0.50212552  0.74833371  0.75131725  1
  Fe  Fe82  1  0.25217823  0.24771435  0.74700230  1
  Fe  Fe83  1  0.49630008  0.00085495  0.75206940  1
  Fe  Fe84  1  0.62470824  0.62448752  0.12348697  1
  Fe  Fe85  1  -0.00232438  0.74915523  0.50322310  1
  Fe  Fe86  1  0.37463440  0.62431968  0.87501267  1
  Fe  Fe87  1  0.24983206  0.49903888  0.50001336  1
  Fe  Fe88  1  0.62462491  0.12425525  0.87594976  1
  Fe  Fe89  1  0.87466004  0.87470105  0.12436710  1
  Co  Co90  1  0.62252079  0.12223814  0.62698792  1
  Co  Co91  1  0.37501154  0.62187041  0.12464750  1
  Co  Co92  1  0.12521729  0.62530573  0.87843357  1
  Co  Co93  1  0.87026464  0.62317859  0.62566217  1
  Co  Co94  1  0.87611165  0.37556289  0.37580752  1
  Co  Co95  1  0.00127434  0.50427050  0.74869593  1
  Co  Co96  1  0.87611648  0.87599001  0.62573153  1
  Co  Co97  1  0.62580279  0.62726375  0.37516740  1
  Co  Co98  1  0.12424417  0.12597952  0.62421785  1
  Co  Co99  1  0.50193087  -0.00177525  0.49784573  1
  Co  Co100  1  0.25123768  -0.00593031  0.00035395  1
  Co  Co101  1  0.62691354  0.12608542  0.37407126  1
  Co  Co102  1  0.37760337  0.87759517  0.12768848  1
  Co  Co103  1  0.12387659  0.87297333  0.37664501  1
  Co  Co104  1  0.62624965  0.62744591  0.87633164  1
  Co  Co105  1  0.74788821  0.24997968  0.50276524  1
  Co  Co106  1  0.12814947  0.62489390  0.62259267  1
  Co  Co107  1  0.37629239  0.37675034  0.62622043  1
  Co  Co108  1  0.37707169  0.12343302  0.62162351  1
  Co  Co109  1  0.75006643  0.75213837  0.50198681  1
  Co  Co110  1  0.62527631  0.87684865  0.87465574  1
  Co  Co111  1  0.24897659  0.50229793  0.74952524  1
  Co  Co112  1  0.25284903  0.75205868  0.24942712  1
  Co  Co113  1  0.24677933  0.49875287  0.25002022  1
  Co  Co114  1  0.50318493  0.50001705  0.25031135  1
  Co  Co115  1  0.00169654  0.25020313  -0.00448457  1
  Co  Co116  1  0.00065023  -0.00165473  0.00094282  1
  Co  Co117  1  0.25032051  0.00080699  0.74675078  1
  Co  Co118  1  0.75146781  0.00035426  0.00007482  1
  Co  Co119  1  0.87327667  0.62548758  0.12298599  1
  Co  Co120  1  0.50274755  0.50288477  0.75039621  1
  Co  Co121  1  0.12415000  0.87511689  0.87284968  1
  Co  Co122  1  0.87619591  0.12696436  0.62450475  1
  Co  Co123  1  -0.00283890  0.75072512  0.25026148  1
  Co  Co124  1  0.37116994  0.12465514  0.87678782  1
  Co  Co125  1  0.37284539  0.87301055  0.87047162  1
  Co  Co126  1  0.62404793  0.37099560  0.87402931  1
  Co  Co127  1  -0.00037236  0.24724724  0.25281495  1
