# generated using pymatgen
data_Fe45Co19
_symmetry_space_group_name_H-M   'P 1'
_cell_length_a   11.41563342
_cell_length_b   11.41518131
_cell_length_c   11.41686334
_cell_angle_alpha   89.99554967
_cell_angle_beta   90.00425467
_cell_angle_gamma   89.99397319
_symmetry_Int_Tables_number   1
_chemical_formula_structural   Fe45Co19
_chemical_formula_sum   'Fe90 Co38'
_cell_volume   1487.74885900
_cell_formula_units_Z   2
loop_
 _symmetry_equiv_pos_site_id
 _symmetry_equiv_pos_as_xyz
  1  'x, y, z'
loop_
 _atom_site_type_symbol
 _atom_site_label
 _atom_site_symmetry_multiplicity
 _atom_site_fract_x
 _atom_site_fract_y
 _atom_site_fract_z
 _atom_site_occupancy
  Fe  Fe0  1  -0.00459456  0.74556490  0.24414910  1
  Fe  Fe1  1  0.62697778  0.62501877  0.62578656  1
  Fe  Fe2  1  0.25047322  -0.00019896  0.75090589  1
  Fe  Fe3  1  0.12401342  0.86866335  0.87382827  1
  Fe  Fe4  1  0.37405949  0.87409223  0.62321584  1
  Fe  Fe5  1  0.50067232  0.00140920  0.24948078  1
  Fe  Fe6  1  -0.00025049  0.25151809  0.49993107  1
  Fe  Fe7  1  0.63022949  0.62283725  0.12287870  1
  Fe  Fe8  1  0.63013946  0.37653324  0.12896697  1
  Fe  Fe9  1  0.87553240  0.87688222  0.37361831  1
  Fe  Fe10  1  0.12296335  0.62408757  0.37238119  1
  Fe  Fe11  1  -0.00281005  0.00346258  0.24515290  1
  Fe  Fe12  1  0.37196371  0.62104048  0.12307997  1
  Fe  Fe13  1  0.24807151  -0.00122039  0.49856234  1
  Fe  Fe14  1  0.87739656  0.87323826  0.87694085  1
  Fe  Fe15  1  0.37766770  0.12443743  0.62130362  1
  Fe  Fe16  1  0.62941049  0.37047690  0.62573169  1
  Fe  Fe17  1  0.50272215  0.49667098  0.50127566  1
  Fe  Fe18  1  0.75046147  0.49784418  0.49722421  1
  Fe  Fe19  1  0.49997289  0.49869444  0.74861228  1
  Fe  Fe20  1  0.87428819  0.37440919  0.62645055  1
  Fe  Fe21  1  0.24915045  -0.00091744  0.00011828  1
  Fe  Fe22  1  0.00229502  0.49937535  0.50170973  1
  Fe  Fe23  1  0.12476672  0.12685580  0.87627426  1
  Fe  Fe24  1  0.50020608  0.74880890  0.00166842  1
  Fe  Fe25  1  0.00334143  0.50438901  0.75229451  1
  Fe  Fe26  1  0.37323839  0.62204709  0.87748823  1
  Fe  Fe27  1  -0.00174603  0.24777230  0.24593350  1
  Fe  Fe28  1  0.12648115  0.86960480  0.62770772  1
  Fe  Fe29  1  0.62541703  0.62408843  0.37558836  1
  Fe  Fe30  1  0.24443847  0.49747283  0.49897680  1
  Fe  Fe31  1  0.12237297  0.87403806  0.37158343  1
  Fe  Fe32  1  -0.00008562  0.74949213  0.50091716  1
  Fe  Fe33  1  0.87661419  0.12424815  0.87837434  1
  Fe  Fe34  1  0.49940675  0.74644352  0.24839680  1
  Fe  Fe35  1  0.00025766  0.00002416  0.74953353  1
  Fe  Fe36  1  0.50097963  0.75034379  0.49986641  1
  Fe  Fe37  1  0.62530080  0.62425738  0.87582474  1
  Fe  Fe38  1  0.12520648  0.12703803  0.62570602  1
  Fe  Fe39  1  0.62700269  0.87508386  0.12762178  1
  Fe  Fe40  1  0.87244905  0.12665429  0.62355175  1
  Fe  Fe41  1  0.74978588  0.00322233  0.75051815  1
  Fe  Fe42  1  0.24996929  0.00178800  0.25054320  1
  Fe  Fe43  1  0.75189443  0.24644806  0.25569061  1
  Fe  Fe44  1  0.75097202  0.74879122  0.49855388  1
  Fe  Fe45  1  0.50038668  0.50011823  0.24915229  1
  Fe  Fe46  1  0.50286544  0.49638752  0.00103187  1
  Fe  Fe47  1  0.24885016  0.25393769  0.00144699  1
  Fe  Fe48  1  0.00101101  -0.00047991  0.00240141  1
  Fe  Fe49  1  0.49945306  0.25244872  0.24915386  1
  Fe  Fe50  1  0.62765584  0.12524079  0.12582945  1
  Fe  Fe51  1  0.12336464  0.12616313  0.37409141  1
  Fe  Fe52  1  0.49750152  0.74822846  0.74989283  1
  Fe  Fe53  1  -0.00487543  0.50322925  0.24263007  1
  Fe  Fe54  1  0.50016597  0.25326342  0.00186707  1
  Fe  Fe55  1  0.24550205  0.49976749  0.75088269  1
  Fe  Fe56  1  0.75064882  0.49868949  0.75404590  1
  Fe  Fe57  1  0.74925159  -0.00151875  0.00051855  1
  Fe  Fe58  1  0.37775264  0.87631988  0.87686524  1
  Fe  Fe59  1  0.87698267  0.37658111  0.37278412  1
  Fe  Fe60  1  0.12572593  0.87423147  0.12649227  1
  Fe  Fe61  1  0.75445503  0.74584239  0.24934794  1
  Fe  Fe62  1  0.00167197  0.25352854  0.00488639  1
  Fe  Fe63  1  -0.00179195  0.24824246  0.74975868  1
  Fe  Fe64  1  0.37602361  0.37647324  0.37479122  1
  Fe  Fe65  1  0.62161941  0.87617532  0.87385346  1
  Fe  Fe66  1  0.37624388  0.87570132  0.12527069  1
  Fe  Fe67  1  0.25169540  0.25142593  0.74987222  1
  Fe  Fe68  1  0.87603765  0.62577181  0.88278474  1
  Fe  Fe69  1  0.37665881  0.12448543  0.87765718  1
  Fe  Fe70  1  0.37199692  0.62388041  0.62226377  1
  Fe  Fe71  1  0.37558410  0.62362812  0.37717455  1
  Fe  Fe72  1  0.24396643  0.49588279  -0.00115060  1
  Fe  Fe73  1  0.37389806  0.12561740  0.12418747  1
  Fe  Fe74  1  0.74927737  0.25388323  -0.00397328  1
  Fe  Fe75  1  0.00207158  -0.00012436  0.50210003  1
  Fe  Fe76  1  0.62630296  0.87504492  0.37202735  1
  Fe  Fe77  1  0.24802792  0.25405825  0.49915172  1
  Fe  Fe78  1  0.87345324  0.87544418  0.62472197  1
  Fe  Fe79  1  0.25156818  0.74712904  0.24992009  1
  Fe  Fe80  1  0.37779181  0.12572839  0.37674798  1
  Fe  Fe81  1  0.37570848  0.87423026  0.37468667  1
  Fe  Fe82  1  0.87916402  0.37645545  0.87593726  1
  Fe  Fe83  1  0.87400327  0.62401280  0.62429280  1
  Fe  Fe84  1  0.62259818  0.12501398  0.87359816  1
  Fe  Fe85  1  0.25004899  0.25182293  0.25006371  1
  Fe  Fe86  1  0.49751328  0.25143124  0.74893149  1
  Fe  Fe87  1  0.75197053  0.74915344  0.75249605  1
  Fe  Fe88  1  0.62571575  0.87546012  0.62628111  1
  Fe  Fe89  1  0.74691743  0.00484619  0.49720009  1
  Co  Co90  1  0.87117890  0.12630664  0.12109270  1
  Co  Co91  1  0.74693011  0.75388203  -0.00164282  1
  Co  Co92  1  0.86897203  0.62234613  0.11465818  1
  Co  Co93  1  0.75137027  0.00400038  0.25202410  1
  Co  Co94  1  -0.00438245  0.74696806  0.74911861  1
  Co  Co95  1  0.62102706  0.37442915  0.87154013  1
  Co  Co96  1  0.12067832  0.37559922  0.36982788  1
  Co  Co97  1  0.12579614  0.37648367  0.13095299  1
  Co  Co98  1  0.88046888  0.12239557  0.37609775  1
  Co  Co99  1  0.12524432  0.63058612  0.87745228  1
  Co  Co100  1  0.75354558  0.50409250  0.25280825  1
  Co  Co101  1  0.37277685  0.37783788  0.62519875  1
  Co  Co102  1  0.74800073  0.49370228  -0.00498935  1
  Co  Co103  1  0.62451506  0.12974399  0.62433793  1
  Co  Co104  1  0.49981516  0.25527908  0.50002403  1
  Co  Co105  1  0.62535795  0.37684134  0.37264773  1
  Co  Co106  1  0.49911873  0.00136130  0.74756246  1
  Co  Co107  1  0.87008754  0.37493710  0.12576490  1
  Co  Co108  1  0.00128876  0.74874528  0.00626516  1
  Co  Co109  1  0.25180286  0.49971852  0.25286771  1
  Co  Co110  1  0.00471306  0.49807337  0.00246389  1
  Co  Co111  1  0.12345471  0.37155529  0.87211906  1
  Co  Co112  1  0.37375041  0.37748590  0.12469411  1
  Co  Co113  1  0.24810879  0.74987392  0.49551040  1
  Co  Co114  1  0.75186849  0.24945559  0.49384972  1
  Co  Co115  1  0.61892766  0.12606809  0.37613653  1
  Co  Co116  1  0.50154099  0.00110534  0.00354868  1
  Co  Co117  1  0.75272344  0.24934984  0.75448351  1
  Co  Co118  1  0.87727920  0.62426292  0.37857955  1
  Co  Co119  1  0.12728921  0.12535980  0.12417857  1
  Co  Co120  1  0.25502766  0.74853285  0.75209602  1
  Co  Co121  1  0.12643513  0.62861643  0.62536431  1
  Co  Co122  1  0.25212833  0.75243406  0.00239425  1
  Co  Co123  1  0.87305880  0.87525764  0.12491194  1
  Co  Co124  1  0.37481080  0.37689693  0.87554649  1
  Co  Co125  1  0.12273369  0.37343411  0.62841160  1
  Co  Co126  1  0.50162837  -0.00275461  0.49946575  1
  Co  Co127  1  0.12941811  0.62405107  0.12475099  1
