# generated using pymatgen
data_Fe45Co19
_symmetry_space_group_name_H-M   'P 1'
_cell_length_a   11.41470132
_cell_length_b   11.41491938
_cell_length_c   11.41455555
_cell_angle_alpha   90.00703481
_cell_angle_beta   89.99795947
_cell_angle_gamma   89.99998671
_symmetry_Int_Tables_number   1
_chemical_formula_structural   Fe45Co19
_chemical_formula_sum   'Fe90 Co38'
_cell_volume   1487.29255249
_cell_formula_units_Z   2
loop_
 _symmetry_equiv_pos_site_id
 _symmetry_equiv_pos_as_xyz
  1  'x, y, z'
loop_
 _atom_site_type_symbol
 _atom_site_label
 _atom_site_symmetry_multiplicity
 _atom_site_fract_x
 _atom_site_fract_y
 _atom_site_fract_z
 _atom_site_occupancy
  Fe  Fe0  1  0.74984886  0.75093646  0.74977347  1
  Fe  Fe1  1  0.50379120  0.00180413  0.25098820  1
  Fe  Fe2  1  0.24712646  0.74919239  0.74886329  1
  Fe  Fe3  1  0.12386828  0.62556542  0.12436732  1
  Fe  Fe4  1  -0.00029478  0.75196508  0.25142437  1
  Fe  Fe5  1  0.37603886  0.37285096  0.12558066  1
  Fe  Fe6  1  0.50066112  0.75216066  0.75094835  1
  Fe  Fe7  1  0.50087981  0.49945559  0.74724000  1
  Fe  Fe8  1  0.87808015  0.12214652  0.12740581  1
  Fe  Fe9  1  0.50005797  0.50170000  0.25268863  1
  Fe  Fe10  1  0.87713648  0.37332045  0.87315445  1
  Fe  Fe11  1  0.74793876  0.75435554  0.25223227  1
  Fe  Fe12  1  0.62456298  0.87322963  0.62221752  1
  Fe  Fe13  1  0.87217082  0.87853550  0.37536752  1
  Fe  Fe14  1  0.24726376  0.24782630  0.75026677  1
  Fe  Fe15  1  0.74778111  0.49774949  0.74646857  1
  Fe  Fe16  1  0.12343795  0.37365309  0.12534705  1
  Fe  Fe17  1  0.24937294  0.49889134  0.25148273  1
  Fe  Fe18  1  0.50197543  0.24904113  0.74794883  1
  Fe  Fe19  1  0.24946570  0.75063956  0.50023669  1
  Fe  Fe20  1  0.75066697  0.75082389  -0.00073160  1
  Fe  Fe21  1  0.87733578  0.12650888  0.87216900  1
  Fe  Fe22  1  0.37200856  0.62460755  0.62415228  1
  Fe  Fe23  1  0.37471441  0.62526506  0.12577060  1
  Fe  Fe24  1  0.37264287  0.37377240  0.87274603  1
  Fe  Fe25  1  0.12388541  0.87725019  0.87281607  1
  Fe  Fe26  1  0.12321330  0.87478414  0.62605404  1
  Fe  Fe27  1  0.75220578  0.24955888  0.00077296  1
  Fe  Fe28  1  0.74761010  0.24780218  0.25107017  1
  Fe  Fe29  1  0.50163044  0.74562471  0.49679118  1
  Fe  Fe30  1  0.49777190  0.24765137  -0.00125785  1
  Fe  Fe31  1  0.87555202  0.37424406  0.37578346  1
  Fe  Fe32  1  0.25102555  -0.00105940  0.50339396  1
  Fe  Fe33  1  0.12613418  0.62468039  0.37514553  1
  Fe  Fe34  1  0.50157287  0.74911720  0.25363071  1
  Fe  Fe35  1  0.49911995  0.75152099  -0.00170470  1
  Fe  Fe36  1  0.62840676  0.12315010  0.38192297  1
  Fe  Fe37  1  0.62435575  0.37309130  0.12418613  1
  Fe  Fe38  1  0.25081999  0.25045369  0.49984888  1
  Fe  Fe39  1  0.87860702  0.37400153  0.62541221  1
  Fe  Fe40  1  0.50191508  0.24769092  0.25243912  1
  Fe  Fe41  1  -0.00177227  0.75262905  -0.00089236  1
  Fe  Fe42  1  0.00092717  0.49881581  -0.00148648  1
  Fe  Fe43  1  0.12518083  0.12544553  0.37722293  1
  Fe  Fe44  1  0.75300036  0.00031147  0.00141277  1
  Fe  Fe45  1  0.74982488  0.49967181  -0.00083377  1
  Fe  Fe46  1  0.25035602  0.24406746  0.00121974  1
  Fe  Fe47  1  0.37301285  0.62456536  0.87373788  1
  Fe  Fe48  1  0.62547660  0.37389763  0.87486097  1
  Fe  Fe49  1  0.87630726  0.37485466  0.12608911  1
  Fe  Fe50  1  0.87500130  0.62546725  0.12662862  1
  Fe  Fe51  1  0.12555619  0.87659617  0.37647097  1
  Fe  Fe52  1  0.24986950  0.75201185  0.24970055  1
  Fe  Fe53  1  0.24981088  0.24833418  0.24939322  1
  Fe  Fe54  1  0.87645704  0.12823091  0.62421907  1
  Fe  Fe55  1  0.24869296  0.00094626  0.24909822  1
  Fe  Fe56  1  0.37371543  0.12365868  0.37450657  1
  Fe  Fe57  1  0.62539972  0.62515119  0.12578786  1
  Fe  Fe58  1  0.24946160  0.49913465  -0.00213332  1
  Fe  Fe59  1  0.49714385  0.00174926  -0.00243192  1
  Fe  Fe60  1  0.74821527  0.25150243  0.74622361  1
  Fe  Fe61  1  0.37673623  0.37670976  0.37841534  1
  Fe  Fe62  1  0.87690709  0.62547176  0.62490615  1
  Fe  Fe63  1  0.87353529  0.12370719  0.37646839  1
  Fe  Fe64  1  0.62383876  0.37554935  0.38302878  1
  Fe  Fe65  1  -0.00073503  0.75049627  0.49889761  1
  Fe  Fe66  1  0.12518573  0.37367964  0.62413153  1
  Fe  Fe67  1  0.37277651  0.87939797  0.87079548  1
  Fe  Fe68  1  0.25091181  0.75344116  0.00070347  1
  Fe  Fe69  1  0.37576845  0.87860446  0.12672547  1
  Fe  Fe70  1  0.49765785  0.00110306  0.50377628  1
  Fe  Fe71  1  -0.00024936  0.00143470  0.50170478  1
  Fe  Fe72  1  0.62521802  0.87686837  0.12314133  1
  Fe  Fe73  1  0.62511793  0.12348983  0.87360593  1
  Fe  Fe74  1  0.87699384  0.87288480  0.62539413  1
  Fe  Fe75  1  0.74860396  0.00014614  0.74621804  1
  Fe  Fe76  1  0.74961122  0.49777135  0.25075660  1
  Fe  Fe77  1  0.37515897  0.37679896  0.62406625  1
  Fe  Fe78  1  0.87579535  0.87600560  0.87176276  1
  Fe  Fe79  1  0.37589558  0.87494687  0.37575791  1
  Fe  Fe80  1  0.62529889  0.62506590  0.87294899  1
  Fe  Fe81  1  0.00209195  0.49814048  0.49730669  1
  Fe  Fe82  1  0.37397899  0.12316811  0.62872362  1
  Fe  Fe83  1  0.00631018  0.50131194  0.75277216  1
  Fe  Fe84  1  0.49977521  0.49960151  -0.00104331  1
  Fe  Fe85  1  0.00124148  0.24893949  0.25161664  1
  Fe  Fe86  1  0.87281075  0.62384424  0.37564821  1
  Fe  Fe87  1  0.87567263  0.62492734  0.87326305  1
  Fe  Fe88  1  0.12164005  0.12343708  0.87473024  1
  Fe  Fe89  1  0.12235047  0.88006133  0.12420565  1
  Co  Co90  1  0.00243522  0.24942429  0.74855702  1
  Co  Co91  1  0.00040665  0.50068665  0.25115286  1
  Co  Co92  1  0.75145411  0.49861205  0.50405573  1
  Co  Co93  1  0.63084363  0.62249671  0.37479198  1
  Co  Co94  1  0.00056966  -0.00088961  0.25451259  1
  Co  Co95  1  0.62138260  0.37308089  0.61927314  1
  Co  Co96  1  0.12524965  0.37281544  0.37377957  1
  Co  Co97  1  0.49566386  0.24511897  0.50095024  1
  Co  Co98  1  0.24665339  0.50102300  0.75031494  1
  Co  Co99  1  0.74697816  0.00064918  0.24859895  1
  Co  Co100  1  0.37547322  0.87219501  0.62464470  1
  Co  Co101  1  0.62437378  0.12555052  0.12158181  1
  Co  Co102  1  0.12377296  0.62547752  0.62167514  1
  Co  Co103  1  0.62772056  0.62769162  0.62633794  1
  Co  Co104  1  0.37664231  0.12454761  0.12825822  1
  Co  Co105  1  0.36987234  0.62523146  0.37505436  1
  Co  Co106  1  0.50301342  -0.00161488  0.74697882  1
  Co  Co107  1  0.50011391  0.50624935  0.50135458  1
  Co  Co108  1  0.75257930  -0.00083554  0.50494495  1
  Co  Co109  1  0.12618123  0.37053665  0.87606802  1
  Co  Co110  1  0.87504680  0.87596932  0.12799512  1
  Co  Co111  1  0.12513454  0.12599540  0.62192832  1
  Co  Co112  1  0.12102533  0.12194965  0.12533572  1
  Co  Co113  1  0.75318721  0.25217000  0.50194099  1
  Co  Co114  1  0.25128431  0.00336103  -0.00069441  1
  Co  Co115  1  0.37624122  0.12338588  0.86914707  1
  Co  Co116  1  0.75109720  0.75038118  0.49919217  1
  Co  Co117  1  -0.00077428  0.00182539  0.74660755  1
  Co  Co118  1  0.12626193  0.62817732  0.87782803  1
  Co  Co119  1  0.24710123  0.00014609  0.74763908  1
  Co  Co120  1  -0.00113631  0.25022611  0.00089434  1
  Co  Co121  1  0.24808286  0.49814687  0.49950226  1
  Co  Co122  1  0.62700737  0.87751103  0.87614820  1
  Co  Co123  1  -0.00325744  -0.00157467  -0.00228974  1
  Co  Co124  1  0.00117919  0.74859749  0.75047561  1
  Co  Co125  1  0.62602697  0.12655293  0.62287282  1
  Co  Co126  1  0.00038404  0.25035687  0.49904799  1
  Co  Co127  1  0.62483310  0.87916965  0.37990727  1
