# generated using pymatgen
data_Fe45Co19
_symmetry_space_group_name_H-M   'P 1'
_cell_length_a   11.41490469
_cell_length_b   11.41604071
_cell_length_c   11.41474503
_cell_angle_alpha   90.00072678
_cell_angle_beta   89.99367287
_cell_angle_gamma   89.99569604
_symmetry_Int_Tables_number   1
_chemical_formula_structural   Fe45Co19
_chemical_formula_sum   'Fe90 Co38'
_cell_volume   1487.48984487
_cell_formula_units_Z   2
loop_
 _symmetry_equiv_pos_site_id
 _symmetry_equiv_pos_as_xyz
  1  'x, y, z'
loop_
 _atom_site_type_symbol
 _atom_site_label
 _atom_site_symmetry_multiplicity
 _atom_site_fract_x
 _atom_site_fract_y
 _atom_site_fract_z
 _atom_site_occupancy
  Fe  Fe0  1  0.24936492  0.00050478  0.75078414  1
  Fe  Fe1  1  0.62592801  0.12606109  0.87436928  1
  Fe  Fe2  1  0.62625120  0.12381757  0.37374463  1
  Fe  Fe3  1  0.12734321  0.37457720  0.87994050  1
  Fe  Fe4  1  0.75023898  0.25125644  0.00065380  1
  Fe  Fe5  1  0.50167731  0.75114599  0.25185211  1
  Fe  Fe6  1  0.24548103  0.75310173  0.50056985  1
  Fe  Fe7  1  0.50039989  0.74819736  -0.00006401  1
  Fe  Fe8  1  0.25044950  0.74836005  0.00013412  1
  Fe  Fe9  1  0.62522924  0.37615628  0.12601127  1
  Fe  Fe10  1  0.37510900  0.12815908  0.62345389  1
  Fe  Fe11  1  0.62531507  0.87562935  0.62520402  1
  Fe  Fe12  1  0.75289980  -0.00059376  0.25118137  1
  Fe  Fe13  1  0.37162822  0.62444250  0.62515503  1
  Fe  Fe14  1  0.49820927  0.50280939  0.00203730  1
  Fe  Fe15  1  -0.00130649  0.50277368  0.50152114  1
  Fe  Fe16  1  0.62378051  0.87399307  0.87326875  1
  Fe  Fe17  1  0.37161606  0.12422318  0.37421962  1
  Fe  Fe18  1  0.37576124  0.87395155  0.12574281  1
  Fe  Fe19  1  0.12480821  0.37709014  0.37583629  1
  Fe  Fe20  1  0.87715732  0.37335976  0.37685449  1
  Fe  Fe21  1  0.24832276  0.75051443  0.74882844  1
  Fe  Fe22  1  0.62540883  0.62267375  0.87201701  1
  Fe  Fe23  1  -0.00101369  0.50039707  0.74724897  1
  Fe  Fe24  1  0.37512070  0.12367069  0.12610174  1
  Fe  Fe25  1  0.50009587  0.00112006  0.74952847  1
  Fe  Fe26  1  0.62382856  0.12771239  0.62460214  1
  Fe  Fe27  1  0.87490326  0.12642354  0.87334278  1
  Fe  Fe28  1  0.37441937  0.37600695  0.87621339  1
  Fe  Fe29  1  0.75259118  0.50104712  0.25224014  1
  Fe  Fe30  1  0.37361197  0.87665232  0.37405265  1
  Fe  Fe31  1  0.24944132  0.50071911  0.25021526  1
  Fe  Fe32  1  0.87930585  0.87153667  0.37613582  1
  Fe  Fe33  1  0.75055995  0.74936954  0.74855125  1
  Fe  Fe34  1  0.87556045  0.37690805  0.12523854  1
  Fe  Fe35  1  0.87303107  0.62284953  0.87430939  1
  Fe  Fe36  1  0.87642708  0.87481533  0.87202999  1
  Fe  Fe37  1  0.24556499  0.75318223  0.25076648  1
  Fe  Fe38  1  0.87476353  0.62881521  0.38087854  1
  Fe  Fe39  1  0.75223799  -0.00092222  0.49932932  1
  Fe  Fe40  1  0.37707245  0.87408481  0.87355220  1
  Fe  Fe41  1  0.50237907  0.75075314  0.50042876  1
  Fe  Fe42  1  0.37556757  0.37209670  0.62214788  1
  Fe  Fe43  1  0.12508067  0.12800049  0.87842167  1
  Fe  Fe44  1  0.62578912  0.62399464  0.37615007  1
  Fe  Fe45  1  0.62307381  0.37731986  0.87284533  1
  Fe  Fe46  1  0.50078751  0.24886286  0.25046197  1
  Fe  Fe47  1  0.75051409  0.25193732  0.50149062  1
  Fe  Fe48  1  -0.00014108  0.74807007  0.74340424  1
  Fe  Fe49  1  0.87582213  0.12579630  0.12546513  1
  Fe  Fe50  1  -0.00102576  0.74749331  -0.00002341  1
  Fe  Fe51  1  0.87872033  0.87200543  0.12643906  1
  Fe  Fe52  1  0.12625493  0.11922218  0.37470230  1
  Fe  Fe53  1  0.74989331  0.74920618  0.00017037  1
  Fe  Fe54  1  0.50224148  0.00061496  0.00070979  1
  Fe  Fe55  1  0.62544151  0.62322449  0.12723537  1
  Fe  Fe56  1  -0.00010178  0.50051705  0.00133810  1
  Fe  Fe57  1  0.12625658  0.62315724  0.87247894  1
  Fe  Fe58  1  0.37463325  0.87443701  0.62617016  1
  Fe  Fe59  1  0.75170195  0.00059183  0.74904026  1
  Fe  Fe60  1  0.62846731  0.62099623  0.62444954  1
  Fe  Fe61  1  0.00066614  0.25024278  0.74955677  1
  Fe  Fe62  1  0.75056430  -0.00088727  0.00059509  1
  Fe  Fe63  1  0.00193924  0.24868707  0.24969736  1
  Fe  Fe64  1  0.37460791  0.62639512  0.37421192  1
  Fe  Fe65  1  0.12332393  0.87423653  0.87360518  1
  Fe  Fe66  1  0.75146345  0.24970155  0.25045876  1
  Fe  Fe67  1  -0.00218047  -0.00128082  0.50252212  1
  Fe  Fe68  1  0.24777917  -0.00139340  0.00257684  1
  Fe  Fe69  1  0.75090484  0.74942367  0.25119201  1
  Fe  Fe70  1  -0.00020196  0.00077355  -0.00047431  1
  Fe  Fe71  1  0.12548831  0.12233036  0.62519957  1
  Fe  Fe72  1  0.24958307  0.25123542  0.74990644  1
  Fe  Fe73  1  0.12623398  0.37759190  0.62247968  1
  Fe  Fe74  1  -0.00105106  0.50295793  0.24992909  1
  Fe  Fe75  1  0.49898764  0.00033461  0.49818758  1
  Fe  Fe76  1  0.49869616  0.49922842  0.49876477  1
  Fe  Fe77  1  0.12485168  0.62561263  0.37830612  1
  Fe  Fe78  1  0.62458038  0.37551809  0.37482503  1
  Fe  Fe79  1  0.37326588  0.37286150  0.37541926  1
  Fe  Fe80  1  0.12537985  0.62495491  0.12496358  1
  Fe  Fe81  1  0.37504625  0.62447335  0.87179208  1
  Fe  Fe82  1  0.50044018  0.24861392  0.00035724  1
  Fe  Fe83  1  0.75043944  0.25375981  0.74679232  1
  Fe  Fe84  1  0.37462396  0.12514751  0.87546241  1
  Fe  Fe85  1  0.62448536  0.87679707  0.12746269  1
  Fe  Fe86  1  0.24581685  0.24930494  0.24868944  1
  Fe  Fe87  1  0.87545167  0.37604754  0.87537755  1
  Fe  Fe88  1  0.00218897  0.24772170  0.49974401  1
  Fe  Fe89  1  0.37329894  0.37732961  0.12566999  1
  Co  Co90  1  0.25118442  0.50386516  0.00106204  1
  Co  Co91  1  0.50156032  0.74859334  0.74740842  1
  Co  Co92  1  0.62493264  0.87678208  0.37362434  1
  Co  Co93  1  -0.00357889  0.25109680  0.00096862  1
  Co  Co94  1  0.25276630  0.24968863  0.00277636  1
  Co  Co95  1  0.75076015  0.49506572  0.49896058  1
  Co  Co96  1  0.12113616  0.87215624  0.12339532  1
  Co  Co97  1  0.00168074  0.74685179  0.25128044  1
  Co  Co98  1  0.87394795  0.62466524  0.12386949  1
  Co  Co99  1  0.87526670  0.12645635  0.62571089  1
  Co  Co100  1  0.87113556  0.62500766  0.62147529  1
  Co  Co101  1  0.74902424  0.49986230  -0.00042232  1
  Co  Co102  1  0.49731165  0.49962584  0.74694806  1
  Co  Co103  1  0.00463627  0.75054044  0.50586177  1
  Co  Co104  1  0.87436927  0.87487788  0.62614567  1
  Co  Co105  1  0.62116367  0.37520623  0.62474657  1
  Co  Co106  1  0.37460104  0.62718604  0.12946495  1
  Co  Co107  1  0.75255275  0.49615006  0.74769353  1
  Co  Co108  1  0.12886908  0.62111523  0.62470182  1
  Co  Co109  1  0.12306792  0.12715607  0.12221788  1
  Co  Co110  1  0.24662070  -0.00186105  0.24553568  1
  Co  Co111  1  0.25205993  -0.00116214  0.50161239  1
  Co  Co112  1  0.87893391  0.37388083  0.62211244  1
  Co  Co113  1  0.00034827  0.00083271  0.24845955  1
  Co  Co114  1  0.87571392  0.12628609  0.37609671  1
  Co  Co115  1  0.62663329  0.12453274  0.12657609  1
  Co  Co116  1  0.74735058  0.75344687  0.50021441  1
  Co  Co117  1  0.25047647  0.49631558  0.75016355  1
  Co  Co118  1  0.49871216  0.25001383  0.75202936  1
  Co  Co119  1  0.24600318  0.24911145  0.49883617  1
  Co  Co120  1  0.00025644  0.00199496  0.75175441  1
  Co  Co121  1  0.12535380  0.87875248  0.62700752  1
  Co  Co122  1  0.12463983  0.37654710  0.12354260  1
  Co  Co123  1  0.49907591  0.00128819  0.25191042  1
  Co  Co124  1  0.49886490  0.49898347  0.25206908  1
  Co  Co125  1  0.50122670  0.24920193  0.49593718  1
  Co  Co126  1  0.12223960  0.87809884  0.37612688  1
  Co  Co127  1  0.25247740  0.49917671  0.49767611  1
