# generated using pymatgen
data_Fe45Co19
_symmetry_space_group_name_H-M   'P 1'
_cell_length_a   11.41367782
_cell_length_b   11.41497545
_cell_length_c   11.41428142
_cell_angle_alpha   90.00126298
_cell_angle_beta   90.00296923
_cell_angle_gamma   89.99906273
_symmetry_Int_Tables_number   1
_chemical_formula_structural   Fe45Co19
_chemical_formula_sum   'Fe90 Co38'
_cell_volume   1487.13079362
_cell_formula_units_Z   2
loop_
 _symmetry_equiv_pos_site_id
 _symmetry_equiv_pos_as_xyz
  1  'x, y, z'
loop_
 _atom_site_type_symbol
 _atom_site_label
 _atom_site_symmetry_multiplicity
 _atom_site_fract_x
 _atom_site_fract_y
 _atom_site_fract_z
 _atom_site_occupancy
  Fe  Fe0  1  0.12647993  0.12283032  0.12768938  1
  Fe  Fe1  1  0.75009170  -0.00027327  0.75101014  1
  Fe  Fe2  1  0.75036560  0.00067698  0.00041457  1
  Fe  Fe3  1  0.49663783  0.00235134  0.75577422  1
  Fe  Fe4  1  0.62460793  0.87441174  0.12540488  1
  Fe  Fe5  1  0.62294902  0.62689492  0.37342022  1
  Fe  Fe6  1  0.12355385  0.62548814  0.12255899  1
  Fe  Fe7  1  0.00087533  -0.00053988  -0.00010501  1
  Fe  Fe8  1  0.37489845  0.12797689  0.37777480  1
  Fe  Fe9  1  0.12297166  0.37489442  0.62628633  1
  Fe  Fe10  1  0.75022160  0.25041373  0.50212430  1
  Fe  Fe11  1  0.62486008  0.62471144  0.87532911  1
  Fe  Fe12  1  0.37167975  0.62768122  0.87401366  1
  Fe  Fe13  1  0.62441285  0.87488372  0.87586998  1
  Fe  Fe14  1  0.37892752  0.87708640  0.62291799  1
  Fe  Fe15  1  0.24710546  0.49838432  -0.00188676  1
  Fe  Fe16  1  0.12571715  0.62278684  0.37488706  1
  Fe  Fe17  1  0.12477680  0.62586769  0.62450197  1
  Fe  Fe18  1  0.75135286  0.25050286  0.24887723  1
  Fe  Fe19  1  -0.00018320  0.25108188  0.00100140  1
  Fe  Fe20  1  0.87417989  0.12448938  0.37599247  1
  Fe  Fe21  1  0.50130249  0.24970734  -0.00117180  1
  Fe  Fe22  1  0.49997881  0.24871040  0.50157739  1
  Fe  Fe23  1  0.25037629  0.75083408  0.50023257  1
  Fe  Fe24  1  0.62782819  0.62652034  0.62827264  1
  Fe  Fe25  1  0.87309816  0.38010328  0.12497681  1
  Fe  Fe26  1  0.12589758  0.37585104  0.12727304  1
  Fe  Fe27  1  0.00186028  0.75095843  0.24784899  1
  Fe  Fe28  1  -0.00077763  0.00052426  0.24986281  1
  Fe  Fe29  1  0.37322410  0.62305561  0.12531019  1
  Fe  Fe30  1  0.25122717  0.24819398  0.74843103  1
  Fe  Fe31  1  0.12440863  0.87197941  0.87466517  1
  Fe  Fe32  1  0.74880280  0.00089081  0.25112597  1
  Fe  Fe33  1  0.87334022  0.87254558  0.62651146  1
  Fe  Fe34  1  -0.00016851  0.00106701  0.75047496  1
  Fe  Fe35  1  0.25256565  -0.00157308  0.75169088  1
  Fe  Fe36  1  0.12682132  0.87666936  0.37226520  1
  Fe  Fe37  1  -0.00128841  0.24800887  0.24968082  1
  Fe  Fe38  1  0.37452062  0.87582116  0.12745402  1
  Fe  Fe39  1  0.37342013  0.37354139  0.87541285  1
  Fe  Fe40  1  0.87631247  0.87505306  0.12413864  1
  Fe  Fe41  1  -0.00021162  0.50127215  0.24947496  1
  Fe  Fe42  1  0.49935136  0.50043280  0.75077822  1
  Fe  Fe43  1  0.25124186  0.25338531  0.25354613  1
  Fe  Fe44  1  0.62729846  0.37547960  0.87255899  1
  Fe  Fe45  1  0.62317544  0.12250474  0.62590357  1
  Fe  Fe46  1  0.12614868  0.12650039  0.87491723  1
  Fe  Fe47  1  0.50113533  0.50208670  0.50188447  1
  Fe  Fe48  1  0.49952305  0.74993501  0.00261709  1
  Fe  Fe49  1  0.49879239  0.75017310  0.74893246  1
  Fe  Fe50  1  0.49895173  0.49963796  0.24840424  1
  Fe  Fe51  1  -0.00158799  0.74798447  0.75153980  1
  Fe  Fe52  1  0.87714174  0.37572366  0.87121484  1
  Fe  Fe53  1  0.75122364  0.50101737  0.50110427  1
  Fe  Fe54  1  0.00082506  0.75097749  0.49877591  1
  Fe  Fe55  1  0.37547211  0.12554967  0.12370606  1
  Fe  Fe56  1  0.87463565  0.12594990  0.87514093  1
  Fe  Fe57  1  0.87269085  0.87354476  0.37396970  1
  Fe  Fe58  1  0.49880018  0.49972043  -0.00134016  1
  Fe  Fe59  1  0.25084763  0.00022481  0.49836866  1
  Fe  Fe60  1  0.87764651  0.37665047  0.62851730  1
  Fe  Fe61  1  0.74491622  -0.00267361  0.49795413  1
  Fe  Fe62  1  -0.00023884  -0.00151735  0.49888109  1
  Fe  Fe63  1  0.25180780  -0.00172206  -0.00094170  1
  Fe  Fe64  1  0.24901204  0.25119034  0.00103419  1
  Fe  Fe65  1  0.37779999  0.87059563  0.37441263  1
  Fe  Fe66  1  0.00248241  0.24932723  0.49918053  1
  Fe  Fe67  1  0.75260407  0.74773555  0.00023726  1
  Fe  Fe68  1  0.12414419  0.87455935  0.62594912  1
  Fe  Fe69  1  0.24606514  0.50042621  0.75288540  1
  Fe  Fe70  1  0.49896053  0.24715641  0.75159700  1
  Fe  Fe71  1  0.37479183  0.62513098  0.37412816  1
  Fe  Fe72  1  0.37253321  0.62415202  0.62571346  1
  Fe  Fe73  1  0.87601239  0.37698461  0.37509636  1
  Fe  Fe74  1  0.50090553  0.00027490  0.25258116  1
  Fe  Fe75  1  0.12717031  0.12415466  0.62320571  1
  Fe  Fe76  1  0.37477591  0.37489349  0.62426731  1
  Fe  Fe77  1  0.24845384  0.49607290  0.49739235  1
  Fe  Fe78  1  0.87497307  0.12399873  0.62422355  1
  Fe  Fe79  1  0.74613331  0.75193736  0.50192479  1
  Fe  Fe80  1  0.49951823  0.25241002  0.24895124  1
  Fe  Fe81  1  0.62508728  0.37543157  0.62713463  1
  Fe  Fe82  1  0.62474025  0.37496689  0.37564058  1
  Fe  Fe83  1  0.74977944  0.74561293  0.24568263  1
  Fe  Fe84  1  0.24978805  0.75259059  0.00213756  1
  Fe  Fe85  1  0.87751654  0.62150091  0.87693904  1
  Fe  Fe86  1  0.62633977  0.37883739  0.12428052  1
  Fe  Fe87  1  0.62475124  0.12475291  0.12445442  1
  Fe  Fe88  1  0.75065961  0.25096879  -0.00056091  1
  Fe  Fe89  1  0.87555216  0.62561518  0.37589044  1
  Co  Co90  1  0.37483017  0.37545603  0.12200755  1
  Co  Co91  1  0.87478715  0.12363647  0.12371580  1
  Co  Co92  1  0.12506834  0.87768387  0.12529401  1
  Co  Co93  1  0.25374651  0.00041227  0.25214531  1
  Co  Co94  1  -0.00294308  0.75191983  0.00037972  1
  Co  Co95  1  0.00338763  0.50419917  0.75088791  1
  Co  Co96  1  0.25056348  0.75238667  0.74675836  1
  Co  Co97  1  0.24727310  0.25299681  0.49808544  1
  Co  Co98  1  0.49803465  -0.00078672  -0.00005748  1
  Co  Co99  1  0.75125872  0.50050589  0.74916823  1
  Co  Co100  1  0.12425734  0.37080461  0.87269497  1
  Co  Co101  1  0.12634580  0.63030934  0.87756040  1
  Co  Co102  1  0.75008358  0.50012598  -0.00250015  1
  Co  Co103  1  0.62206884  0.87734432  0.62890027  1
  Co  Co104  1  0.00024698  0.24632617  0.74887889  1
  Co  Co105  1  0.25148307  0.49844866  0.24992712  1
  Co  Co106  1  0.50099539  0.74778813  0.50357342  1
  Co  Co107  1  0.12090575  0.37677508  0.37310003  1
  Co  Co108  1  -0.00139048  0.50121900  0.50185491  1
  Co  Co109  1  0.62348734  0.86925908  0.37117798  1
  Co  Co110  1  0.62476174  0.62150487  0.12292073  1
  Co  Co111  1  0.24793820  0.74905087  0.24935561  1
  Co  Co112  1  0.00403225  0.49610310  -0.00193580  1
  Co  Co113  1  0.37503482  0.12323634  0.62215792  1
  Co  Co114  1  0.87540028  0.87770899  0.87510106  1
  Co  Co115  1  0.87752104  0.62147254  0.12305872  1
  Co  Co116  1  0.37538581  0.87097025  0.87573740  1
  Co  Co117  1  0.87418407  0.62818196  0.62411647  1
  Co  Co118  1  0.50382329  0.00015579  0.49384601  1
  Co  Co119  1  0.62680999  0.12397374  0.87688513  1
  Co  Co120  1  0.49907080  0.74761855  0.24545772  1
  Co  Co121  1  0.74983879  0.24845202  0.74896800  1
  Co  Co122  1  0.37859793  0.37624718  0.37781829  1
  Co  Co123  1  0.75103808  0.74994643  0.75423327  1
  Co  Co124  1  0.12430052  0.12387222  0.37375927  1
  Co  Co125  1  0.62677242  0.12963470  0.37382644  1
  Co  Co126  1  0.74864868  0.50218952  0.25246297  1
  Co  Co127  1  0.37298093  0.12769152  0.87850019  1
