# generated using pymatgen
data_Fe45Co19
_symmetry_space_group_name_H-M   'P 1'
_cell_length_a   11.41443195
_cell_length_b   11.41446322
_cell_length_c   11.41580849
_cell_angle_alpha   89.99557355
_cell_angle_beta   89.99628817
_cell_angle_gamma   90.00543827
_symmetry_Int_Tables_number   1
_chemical_formula_structural   Fe45Co19
_chemical_formula_sum   'Fe90 Co38'
_cell_volume   1487.36126340
_cell_formula_units_Z   2
loop_
 _symmetry_equiv_pos_site_id
 _symmetry_equiv_pos_as_xyz
  1  'x, y, z'
loop_
 _atom_site_type_symbol
 _atom_site_label
 _atom_site_symmetry_multiplicity
 _atom_site_fract_x
 _atom_site_fract_y
 _atom_site_fract_z
 _atom_site_occupancy
  Fe  Fe0  1  0.62855165  0.87515967  0.62523098  1
  Fe  Fe1  1  0.49899002  0.49934265  0.74739068  1
  Fe  Fe2  1  0.62552331  0.37397019  0.87437162  1
  Fe  Fe3  1  0.75051904  0.24965374  0.49808707  1
  Fe  Fe4  1  0.00394208  0.24852742  0.50389508  1
  Fe  Fe5  1  0.12293055  0.88083045  0.87697749  1
  Fe  Fe6  1  0.12469503  0.62464264  0.12460362  1
  Fe  Fe7  1  -0.00300316  0.24450360  0.00182443  1
  Fe  Fe8  1  0.87432037  0.62445788  0.12340624  1
  Fe  Fe9  1  0.24926547  0.75256189  -0.00041981  1
  Fe  Fe10  1  0.87677225  0.37477320  0.37517567  1
  Fe  Fe11  1  0.37025141  0.37803358  0.62182724  1
  Fe  Fe12  1  0.37697569  0.87358931  0.37625302  1
  Fe  Fe13  1  0.87204890  0.87804685  0.62729965  1
  Fe  Fe14  1  0.62693162  0.37541890  0.62559410  1
  Fe  Fe15  1  0.87429324  0.87509974  0.37764961  1
  Fe  Fe16  1  0.50131672  0.74735068  0.50344392  1
  Fe  Fe17  1  0.62792561  0.62502459  0.37702234  1
  Fe  Fe18  1  0.62798363  0.12538861  0.62507896  1
  Fe  Fe19  1  0.62642476  0.87414937  0.87271630  1
  Fe  Fe20  1  0.62438327  0.12774800  0.87246617  1
  Fe  Fe21  1  0.00203179  -0.00244166  0.25099427  1
  Fe  Fe22  1  0.49973324  0.00111152  -0.00004389  1
  Fe  Fe23  1  0.12386048  0.12483836  0.37719094  1
  Fe  Fe24  1  0.50348410  0.00043188  0.49918068  1
  Fe  Fe25  1  0.50001879  0.25233598  0.24898874  1
  Fe  Fe26  1  0.87442695  0.37284847  0.87724335  1
  Fe  Fe27  1  0.75065072  0.74960799  -0.00240102  1
  Fe  Fe28  1  0.75068359  0.24926293  0.74998682  1
  Fe  Fe29  1  0.37645410  0.62654024  0.87354206  1
  Fe  Fe30  1  0.24811843  -0.00317701  0.25065985  1
  Fe  Fe31  1  0.24743540  0.24861287  0.74700393  1
  Fe  Fe32  1  0.62838348  0.12527597  0.12633283  1
  Fe  Fe33  1  -0.00054827  0.75198134  -0.00108277  1
  Fe  Fe34  1  0.12518667  0.12111531  0.12284241  1
  Fe  Fe35  1  0.87393174  0.87788503  0.12364727  1
  Fe  Fe36  1  0.37707111  0.87463270  0.87306162  1
  Fe  Fe37  1  0.87582386  0.12492954  0.37681427  1
  Fe  Fe38  1  0.37095540  0.62209582  0.62510052  1
  Fe  Fe39  1  0.87431824  0.62463388  0.37758959  1
  Fe  Fe40  1  0.12292360  0.37261623  0.87550526  1
  Fe  Fe41  1  0.50168069  0.75112498  0.00083280  1
  Fe  Fe42  1  0.24815326  0.74970369  0.50055243  1
  Fe  Fe43  1  0.37430846  0.12555690  0.87262095  1
  Fe  Fe44  1  0.50405707  -0.00203986  0.25161159  1
  Fe  Fe45  1  0.50024219  0.24973265  0.00142294  1
  Fe  Fe46  1  0.50259780  0.75204148  0.24895398  1
  Fe  Fe47  1  0.49901371  0.25049869  0.50244921  1
  Fe  Fe48  1  0.00232258  0.24660289  0.74730860  1
  Fe  Fe49  1  0.87125362  0.37575001  0.12237419  1
  Fe  Fe50  1  -0.00189341  0.49968515  0.24831150  1
  Fe  Fe51  1  -0.00126272  0.49874168  0.75110824  1
  Fe  Fe52  1  0.00032761  0.75328182  0.24927851  1
  Fe  Fe53  1  0.12488376  0.62175490  0.62714743  1
  Fe  Fe54  1  0.87600341  0.62590159  0.87166053  1
  Fe  Fe55  1  0.24973537  0.00026334  0.49850574  1
  Fe  Fe56  1  0.24773455  0.75259801  0.25020524  1
  Fe  Fe57  1  0.74985981  0.75120493  0.25048047  1
  Fe  Fe58  1  0.74646402  -0.00002204  0.25596615  1
  Fe  Fe59  1  0.37491483  0.12551397  0.12697675  1
  Fe  Fe60  1  0.62997794  0.37488326  0.12419929  1
  Fe  Fe61  1  -0.00290153  0.00393509  0.75094221  1
  Fe  Fe62  1  0.12391877  0.37545220  0.12418052  1
  Fe  Fe63  1  0.49954914  0.49838986  0.24955269  1
  Fe  Fe64  1  0.37296193  0.12465206  0.62458595  1
  Fe  Fe65  1  0.00092684  0.49904163  0.50084646  1
  Fe  Fe66  1  0.75324976  0.00282061  -0.00466454  1
  Fe  Fe67  1  0.62451332  0.62495742  0.87166263  1
  Fe  Fe68  1  -0.00229862  0.24843798  0.24691869  1
  Fe  Fe69  1  0.25029813  0.25275426  0.25273769  1
  Fe  Fe70  1  0.37596064  0.87518307  0.12533758  1
  Fe  Fe71  1  0.24951554  0.49852714  -0.00206692  1
  Fe  Fe72  1  0.37535618  0.87496713  0.62504746  1
  Fe  Fe73  1  0.87536945  0.37470203  0.62533650  1
  Fe  Fe74  1  0.37630302  0.62359334  0.37659031  1
  Fe  Fe75  1  -0.00175954  0.75150439  0.50383542  1
  Fe  Fe76  1  0.24998543  0.24857282  0.00040638  1
  Fe  Fe77  1  0.50077195  0.00054164  0.74850724  1
  Fe  Fe78  1  0.62698152  0.62445910  0.12516503  1
  Fe  Fe79  1  0.62464022  0.37573980  0.37567845  1
  Fe  Fe80  1  0.12413777  0.87957045  0.62489231  1
  Fe  Fe81  1  0.12342231  0.62468926  0.87411951  1
  Fe  Fe82  1  0.24791314  0.75229478  0.75007329  1
  Fe  Fe83  1  0.37586581  0.37304437  0.87382405  1
  Fe  Fe84  1  0.63096821  0.62362741  0.62626432  1
  Fe  Fe85  1  0.37631625  0.12667350  0.37526765  1
  Fe  Fe86  1  0.12199880  0.62656779  0.37466334  1
  Fe  Fe87  1  0.37399498  0.62402654  0.12463330  1
  Fe  Fe88  1  0.50036211  0.49856804  0.00039918  1
  Fe  Fe89  1  0.24990109  0.49666886  0.25327568  1
  Co  Co90  1  0.25184395  -0.00055791  0.74985304  1
  Co  Co91  1  0.87125071  0.12077135  0.12944411  1
  Co  Co92  1  0.87516816  0.87391709  0.87243827  1
  Co  Co93  1  0.12646893  0.37861628  0.62676147  1
  Co  Co94  1  0.24995108  0.49950754  0.75476025  1
  Co  Co95  1  0.50031068  0.74945399  0.74638083  1
  Co  Co96  1  0.62848496  0.87688973  0.12175908  1
  Co  Co97  1  0.37378157  0.37525043  0.12392946  1
  Co  Co98  1  0.50298695  0.50147453  0.50325824  1
  Co  Co99  1  0.12265737  0.87666104  0.12067315  1
  Co  Co100  1  0.75183117  0.49793111  0.49982601  1
  Co  Co101  1  0.87243815  0.12531830  0.62337449  1
  Co  Co102  1  0.49808293  0.25079409  0.74642758  1
  Co  Co103  1  -0.00225508  -0.00038045  0.50028813  1
  Co  Co104  1  0.12617907  0.12318893  0.87576853  1
  Co  Co105  1  0.75177762  0.74923917  0.74950595  1
  Co  Co106  1  -0.00585344  0.00399894  -0.00200350  1
  Co  Co107  1  0.87492622  0.12959327  0.87111943  1
  Co  Co108  1  0.12536100  0.12056091  0.62447057  1
  Co  Co109  1  0.25418580  0.00020473  0.00042723  1
  Co  Co110  1  0.75248907  0.49799538  0.75130011  1
  Co  Co111  1  0.24483897  0.49900128  0.49406302  1
  Co  Co112  1  0.37798287  0.37521888  0.37954808  1
  Co  Co113  1  0.12417082  0.87386255  0.37909164  1
  Co  Co114  1  0.24652455  0.25047703  0.50006429  1
  Co  Co115  1  0.75205388  0.50017759  0.25139465  1
  Co  Co116  1  0.62464666  0.87012984  0.37881660  1
  Co  Co117  1  -0.00089244  0.50053968  -0.00047257  1
  Co  Co118  1  0.75006440  0.00285397  0.75180563  1
  Co  Co119  1  0.75174946  0.25053310  0.25262384  1
  Co  Co120  1  0.74993051  0.50249292  -0.00260031  1
  Co  Co121  1  0.74803205  0.00135868  0.49758788  1
  Co  Co122  1  0.11978703  0.37251384  0.37315252  1
  Co  Co123  1  0.62264044  0.12935151  0.37574394  1
  Co  Co124  1  0.75330243  0.75002303  0.50280144  1
  Co  Co125  1  0.87570641  0.62257870  0.62661720  1
  Co  Co126  1  0.75099474  0.24669534  -0.00024255  1
  Co  Co127  1  0.00181827  0.75161267  0.74821226  1
