# generated using pymatgen
data_Fe45Co19
_symmetry_space_group_name_H-M   'P 1'
_cell_length_a   11.41349006
_cell_length_b   11.41360979
_cell_length_c   11.41358493
_cell_angle_alpha   90.00627544
_cell_angle_beta   90.00148788
_cell_angle_gamma   89.99418382
_symmetry_Int_Tables_number   1
_chemical_formula_structural   Fe45Co19
_chemical_formula_sum   'Fe90 Co38'
_cell_volume   1486.83766797
_cell_formula_units_Z   2
loop_
 _symmetry_equiv_pos_site_id
 _symmetry_equiv_pos_as_xyz
  1  'x, y, z'
loop_
 _atom_site_type_symbol
 _atom_site_label
 _atom_site_symmetry_multiplicity
 _atom_site_fract_x
 _atom_site_fract_y
 _atom_site_fract_z
 _atom_site_occupancy
  Fe  Fe0  1  0.37232882  0.37546333  0.87558080  1
  Fe  Fe1  1  0.24947705  0.25028519  0.49950501  1
  Fe  Fe2  1  0.50148191  0.25095068  0.75251196  1
  Fe  Fe3  1  0.62596477  0.37685239  0.62666047  1
  Fe  Fe4  1  0.62566509  0.12526416  0.37574610  1
  Fe  Fe5  1  0.75220687  0.25165294  0.00365043  1
  Fe  Fe6  1  0.37688581  0.87746185  0.12616918  1
  Fe  Fe7  1  0.50058965  0.49919773  0.49837913  1
  Fe  Fe8  1  0.49985554  0.25137704  0.50049352  1
  Fe  Fe9  1  0.12436182  0.12322320  0.62536653  1
  Fe  Fe10  1  -0.00863829  0.50217474  0.00071658  1
  Fe  Fe11  1  0.74998705  0.25059348  0.50124336  1
  Fe  Fe12  1  0.00032481  0.75057246  0.50097918  1
  Fe  Fe13  1  0.62382305  0.11932385  0.12145034  1
  Fe  Fe14  1  0.24923435  0.24993584  0.24605262  1
  Fe  Fe15  1  0.00280791  0.25113130  0.75296542  1
  Fe  Fe16  1  0.75121767  0.74763352  -0.00148763  1
  Fe  Fe17  1  0.24711268  0.74984309  0.00411025  1
  Fe  Fe18  1  0.62610496  0.12409664  0.87762517  1
  Fe  Fe19  1  0.49982496  0.24867224  0.24513589  1
  Fe  Fe20  1  0.37380892  0.12641877  0.87640261  1
  Fe  Fe21  1  0.75315254  -0.00087385  0.49981885  1
  Fe  Fe22  1  0.62936265  0.37846940  0.87810088  1
  Fe  Fe23  1  0.00250789  0.74975761  0.24687599  1
  Fe  Fe24  1  0.62597171  0.87487738  0.37620117  1
  Fe  Fe25  1  0.25024444  0.00050203  0.25129571  1
  Fe  Fe26  1  0.37505293  0.12672703  0.62714467  1
  Fe  Fe27  1  0.00236726  0.25139779  -0.00071226  1
  Fe  Fe28  1  0.50078034  0.50116949  0.75267586  1
  Fe  Fe29  1  0.74991371  0.24865991  0.74895290  1
  Fe  Fe30  1  -0.00054189  0.00006217  0.24994777  1
  Fe  Fe31  1  0.75208416  0.00106379  0.75217892  1
  Fe  Fe32  1  0.87309898  0.87285788  0.12610764  1
  Fe  Fe33  1  -0.00170026  0.50040531  0.75178474  1
  Fe  Fe34  1  0.00207360  0.24836314  0.24821446  1
  Fe  Fe35  1  0.37346022  0.87180372  0.62535497  1
  Fe  Fe36  1  0.24810345  0.74791364  0.24546019  1
  Fe  Fe37  1  0.37671396  0.62972294  0.87445655  1
  Fe  Fe38  1  0.62504556  0.62428312  0.62337813  1
  Fe  Fe39  1  0.25284305  0.50320604  0.00107544  1
  Fe  Fe40  1  0.62521129  0.87571171  0.62543286  1
  Fe  Fe41  1  0.12608940  0.87331500  0.37553574  1
  Fe  Fe42  1  0.25168991  -0.00127254  -0.00140991  1
  Fe  Fe43  1  0.50089157  0.75243503  0.00114090  1
  Fe  Fe44  1  0.37613680  0.62555413  0.62644613  1
  Fe  Fe45  1  0.74781290  0.74997858  0.25218800  1
  Fe  Fe46  1  -0.00117635  -0.00061814  0.49864036  1
  Fe  Fe47  1  -0.00056718  -0.00108253  0.74953776  1
  Fe  Fe48  1  0.87409480  0.37700226  0.62564352  1
  Fe  Fe49  1  0.12580431  0.37993555  0.12318321  1
  Fe  Fe50  1  -0.00204713  0.50170479  0.24952261  1
  Fe  Fe51  1  0.49826716  0.49985237  0.00094946  1
  Fe  Fe52  1  0.25129111  -0.00037747  0.49774331  1
  Fe  Fe53  1  0.25004044  0.50136474  0.49812647  1
  Fe  Fe54  1  0.87776016  0.86909889  0.87386882  1
  Fe  Fe55  1  0.87461218  0.37568791  0.37468844  1
  Fe  Fe56  1  0.87505117  0.12561889  0.37400797  1
  Fe  Fe57  1  0.12560641  0.37672140  0.37339853  1
  Fe  Fe58  1  0.62744518  0.62278933  0.12394869  1
  Fe  Fe59  1  0.24552351  0.25110731  0.75502436  1
  Fe  Fe60  1  0.12440789  0.62295587  0.62417560  1
  Fe  Fe61  1  0.49728367  -0.00113407  0.49784206  1
  Fe  Fe62  1  0.37515240  0.62714303  0.37277626  1
  Fe  Fe63  1  0.25029886  -0.00218101  0.75168599  1
  Fe  Fe64  1  0.37614596  0.12599067  0.37253922  1
  Fe  Fe65  1  0.12299446  0.87293298  0.87574950  1
  Fe  Fe66  1  0.74976922  -0.00049315  0.24863827  1
  Fe  Fe67  1  0.37406533  0.37542521  0.37177328  1
  Fe  Fe68  1  0.62528452  0.87432649  0.87587661  1
  Fe  Fe69  1  0.87273552  0.62508082  0.37636853  1
  Fe  Fe70  1  0.62581822  0.37586654  0.37197050  1
  Fe  Fe71  1  0.12069831  0.62606033  0.87784341  1
  Fe  Fe72  1  0.62380513  0.12288158  0.62494610  1
  Fe  Fe73  1  0.49777075  -0.00246225  0.75382205  1
  Fe  Fe74  1  0.87587505  0.12697083  0.87633754  1
  Fe  Fe75  1  0.12565467  0.62540559  0.37412303  1
  Fe  Fe76  1  0.00115612  0.24993328  0.50026905  1
  Fe  Fe77  1  0.87460287  0.87265108  0.62568569  1
  Fe  Fe78  1  -0.00326253  -0.00253327  0.00128100  1
  Fe  Fe79  1  0.74973762  0.25009923  0.24623722  1
  Fe  Fe80  1  0.24617720  0.74905684  0.74891043  1
  Fe  Fe81  1  0.49966374  0.50020015  0.24789243  1
  Fe  Fe82  1  0.50249110  0.75212395  0.24906342  1
  Fe  Fe83  1  0.12561897  0.12245612  0.12249076  1
  Fe  Fe84  1  0.12637497  0.37789203  0.62636057  1
  Fe  Fe85  1  0.87333474  0.62415008  0.62351246  1
  Fe  Fe86  1  0.74747319  0.74662529  0.75047015  1
  Fe  Fe87  1  0.50053906  0.75045901  0.49866689  1
  Fe  Fe88  1  0.49776965  0.25061381  0.00230682  1
  Fe  Fe89  1  0.37304281  0.37621467  0.62801199  1
  Co  Co90  1  0.12336626  0.12024167  0.87673342  1
  Co  Co91  1  0.87814619  0.62957735  0.87314111  1
  Co  Co92  1  0.87635696  0.87328271  0.37281584  1
  Co  Co93  1  0.12492375  0.12474854  0.37543436  1
  Co  Co94  1  0.75207787  0.49954645  0.24843794  1
  Co  Co95  1  0.62511470  0.37848342  0.12336410  1
  Co  Co96  1  0.12579058  0.87719293  0.62279609  1
  Co  Co97  1  0.75037148  0.50349781  0.75263925  1
  Co  Co98  1  0.75410665  -0.00238319  -0.00191415  1
  Co  Co99  1  0.37284922  0.87132672  0.37259135  1
  Co  Co100  1  0.24755624  0.25008408  -0.00010321  1
  Co  Co101  1  0.37489048  0.12129882  0.12420577  1
  Co  Co102  1  0.37783783  0.62642815  0.12575819  1
  Co  Co103  1  0.50278076  -0.00159827  0.25156515  1
  Co  Co104  1  0.12461218  0.38187497  0.87893649  1
  Co  Co105  1  0.12259378  0.61980299  0.12315977  1
  Co  Co106  1  0.37234793  0.37588220  0.12488155  1
  Co  Co107  1  0.24943747  0.50420189  0.75265702  1
  Co  Co108  1  0.00107053  0.50014605  0.49902853  1
  Co  Co109  1  0.74785428  0.49858814  0.49804060  1
  Co  Co110  1  0.62520448  0.62422254  0.37342657  1
  Co  Co111  1  0.87238370  0.62980465  0.12832020  1
  Co  Co112  1  0.37268902  0.86871718  0.87532893  1
  Co  Co113  1  0.00094435  0.75046063  0.00562485  1
  Co  Co114  1  0.24887417  0.74697003  0.50105640  1
  Co  Co115  1  0.00324568  0.74895707  0.74590865  1
  Co  Co116  1  0.87715468  0.37366023  0.12730653  1
  Co  Co117  1  0.87616486  0.12468656  0.12419296  1
  Co  Co118  1  0.74968452  0.75049846  0.49945058  1
  Co  Co119  1  0.62693224  0.87549310  0.12220456  1
  Co  Co120  1  0.50292678  0.75045786  0.75011598  1
  Co  Co121  1  0.75675645  0.50168024  0.00125162  1
  Co  Co122  1  0.87667851  0.12580247  0.62521050  1
  Co  Co123  1  0.49791321  -0.00257480  -0.00409750  1
  Co  Co124  1  0.87243724  0.37283173  0.87352462  1
  Co  Co125  1  0.25016140  0.50246674  0.24975088  1
  Co  Co126  1  0.62351390  0.62317065  0.87908026  1
  Co  Co127  1  0.12527288  0.87873933  0.12536068  1
