# generated using pymatgen
data_Fe45Co19
_symmetry_space_group_name_H-M   'P 1'
_cell_length_a   11.41527220
_cell_length_b   11.41493506
_cell_length_c   11.41551461
_cell_angle_alpha   90.00032016
_cell_angle_beta   90.00430729
_cell_angle_gamma   89.99750196
_symmetry_Int_Tables_number   1
_chemical_formula_structural   Fe45Co19
_chemical_formula_sum   'Fe90 Co38'
_cell_volume   1487.49395444
_cell_formula_units_Z   2
loop_
 _symmetry_equiv_pos_site_id
 _symmetry_equiv_pos_as_xyz
  1  'x, y, z'
loop_
 _atom_site_type_symbol
 _atom_site_label
 _atom_site_symmetry_multiplicity
 _atom_site_fract_x
 _atom_site_fract_y
 _atom_site_fract_z
 _atom_site_occupancy
  Fe  Fe0  1  0.87450602  0.37613872  0.87587614  1
  Fe  Fe1  1  0.75056358  0.25104907  -0.00158315  1
  Fe  Fe2  1  0.87331247  0.87105956  0.12425379  1
  Fe  Fe3  1  0.62500661  0.62396666  0.37329157  1
  Fe  Fe4  1  0.50162500  0.75129696  0.25225685  1
  Fe  Fe5  1  0.00287297  0.24830881  0.00042598  1
  Fe  Fe6  1  0.87562158  0.87109146  0.62809819  1
  Fe  Fe7  1  0.62571792  0.37257443  0.62333600  1
  Fe  Fe8  1  0.49897892  0.50199060  0.50295345  1
  Fe  Fe9  1  0.00125321  0.49765873  0.49935365  1
  Fe  Fe10  1  0.50074417  0.25121127  0.75252633  1
  Fe  Fe11  1  0.75069335  0.00069846  0.50127692  1
  Fe  Fe12  1  0.50024627  0.00077932  0.74978588  1
  Fe  Fe13  1  0.00156979  0.75135322  0.49991716  1
  Fe  Fe14  1  0.50040629  0.24780295  0.49799118  1
  Fe  Fe15  1  0.37826151  0.87233659  0.62288237  1
  Fe  Fe16  1  0.24631859  0.24811966  0.49518942  1
  Fe  Fe17  1  0.12579674  0.62309264  0.37423003  1
  Fe  Fe18  1  -0.00121574  0.50163514  0.00076030  1
  Fe  Fe19  1  0.62474798  0.87388966  0.87576448  1
  Fe  Fe20  1  0.62508918  0.12278688  0.37435837  1
  Fe  Fe21  1  0.62175915  0.87313879  0.62216465  1
  Fe  Fe22  1  0.62562543  0.37471750  0.12504052  1
  Fe  Fe23  1  0.12624849  0.12836580  0.13274780  1
  Fe  Fe24  1  0.87429059  0.37331032  0.62313584  1
  Fe  Fe25  1  0.87601894  0.62417872  0.37415511  1
  Fe  Fe26  1  0.37143525  0.36966577  0.12288522  1
  Fe  Fe27  1  0.37894397  0.62306604  0.87448417  1
  Fe  Fe28  1  0.62612165  0.12675589  0.62580417  1
  Fe  Fe29  1  0.49946368  0.49853403  0.24707400  1
  Fe  Fe30  1  0.24646288  0.24899725  0.75194718  1
  Fe  Fe31  1  0.37355875  0.11987598  0.37175242  1
  Fe  Fe32  1  0.37376097  0.12660382  0.62531793  1
  Fe  Fe33  1  0.75149704  0.25038732  0.25271838  1
  Fe  Fe34  1  0.74851761  0.74997882  0.49836543  1
  Fe  Fe35  1  0.87796075  0.37444598  0.12663187  1
  Fe  Fe36  1  0.24979265  0.75323468  0.25178238  1
  Fe  Fe37  1  0.37607220  0.87540821  0.12471394  1
  Fe  Fe38  1  -0.00045719  0.49967838  0.74882317  1
  Fe  Fe39  1  0.25101709  0.75029494  0.75084857  1
  Fe  Fe40  1  0.37739491  0.62771889  0.12637109  1
  Fe  Fe41  1  0.00055167  0.75069349  0.25180566  1
  Fe  Fe42  1  0.74915991  -0.00165802  0.24997219  1
  Fe  Fe43  1  0.37390655  0.37287258  0.62470364  1
  Fe  Fe44  1  0.50125259  0.00102744  0.00187696  1
  Fe  Fe45  1  0.62526970  0.12670234  0.12420703  1
  Fe  Fe46  1  -0.00200569  0.75008598  -0.00454589  1
  Fe  Fe47  1  0.24922423  0.49862220  0.24711578  1
  Fe  Fe48  1  0.37963272  0.87929247  0.37659936  1
  Fe  Fe49  1  0.37478873  0.37723877  0.37639429  1
  Fe  Fe50  1  0.12339763  0.62575289  0.12539516  1
  Fe  Fe51  1  0.74998639  0.50047596  0.50232018  1
  Fe  Fe52  1  0.00089932  0.00123428  0.00313289  1
  Fe  Fe53  1  0.75041560  -0.00067260  -0.00118655  1
  Fe  Fe54  1  0.24790039  0.00047627  0.74581542  1
  Fe  Fe55  1  0.62666041  0.37649033  0.37562681  1
  Fe  Fe56  1  0.87433773  0.87546998  0.37436528  1
  Fe  Fe57  1  0.62356133  0.62740706  0.62785440  1
  Fe  Fe58  1  0.24801200  0.00321010  0.00356884  1
  Fe  Fe59  1  0.50004811  0.25055496  -0.00220328  1
  Fe  Fe60  1  0.25182522  0.74933741  -0.00075305  1
  Fe  Fe61  1  0.87535834  0.12823130  0.62515378  1
  Fe  Fe62  1  0.25197961  0.50019375  0.00104440  1
  Fe  Fe63  1  0.12632401  0.62472592  0.87463013  1
  Fe  Fe64  1  0.74980020  0.25113836  0.75251562  1
  Fe  Fe65  1  0.62695492  0.87073292  0.12502924  1
  Fe  Fe66  1  0.75183787  0.50383082  0.24503344  1
  Fe  Fe67  1  0.62358069  0.62165758  0.87737708  1
  Fe  Fe68  1  0.25062625  0.75235391  0.49826878  1
  Fe  Fe69  1  0.87570971  0.12268653  0.87516421  1
  Fe  Fe70  1  0.87818041  0.12256246  0.37405169  1
  Fe  Fe71  1  0.12476952  0.87241751  0.12436063  1
  Fe  Fe72  1  0.37411615  0.12476688  0.87705218  1
  Fe  Fe73  1  0.00215362  -0.00014147  0.74632509  1
  Fe  Fe74  1  0.87405813  0.12661634  0.12628605  1
  Fe  Fe75  1  0.00237517  0.25191410  0.49396423  1
  Fe  Fe76  1  0.49832364  0.24935240  0.25118527  1
  Fe  Fe77  1  0.37415428  0.87772575  0.87594172  1
  Fe  Fe78  1  0.12462921  0.87667472  0.87411199  1
  Fe  Fe79  1  0.62561953  0.37984981  0.87602833  1
  Fe  Fe80  1  0.12556298  0.62692261  0.62570895  1
  Fe  Fe81  1  0.25202829  0.49946554  0.74896794  1
  Fe  Fe82  1  0.12352684  0.88238993  0.37593984  1
  Fe  Fe83  1  0.24926345  0.49992144  0.50225826  1
  Fe  Fe84  1  0.74940450  -0.00073857  0.75013145  1
  Fe  Fe85  1  0.00239507  0.24990532  0.75061585  1
  Fe  Fe86  1  0.12596116  0.37586863  0.87678707  1
  Fe  Fe87  1  0.37392271  0.62366845  0.37437629  1
  Fe  Fe88  1  0.87516076  0.62728310  0.62648946  1
  Fe  Fe89  1  0.87090775  0.62435290  0.87277826  1
  Co  Co90  1  0.37329208  0.62757916  0.62459832  1
  Co  Co91  1  0.49770117  0.75148760  -0.00157128  1
  Co  Co92  1  0.62368461  0.87662695  0.37785276  1
  Co  Co93  1  0.49950294  0.74538224  0.49696675  1
  Co  Co94  1  0.87719624  0.87858996  0.87374558  1
  Co  Co95  1  0.24606770  0.24668866  -0.00126681  1
  Co  Co96  1  0.25095388  -0.00108928  0.50338038  1
  Co  Co97  1  0.62140555  0.62808080  0.12234246  1
  Co  Co98  1  0.12489504  0.37545458  0.12381939  1
  Co  Co99  1  0.12779700  0.37891837  0.37187844  1
  Co  Co100  1  0.87887410  0.62907344  0.12621381  1
  Co  Co101  1  0.00072857  0.25293654  0.25529080  1
  Co  Co102  1  0.12305012  0.11735093  0.37336359  1
  Co  Co103  1  0.12550343  0.37431490  0.62526008  1
  Co  Co104  1  0.12461228  0.87161296  0.62597062  1
  Co  Co105  1  0.75179169  0.74802758  -0.00287193  1
  Co  Co106  1  0.74937789  0.74841186  0.25191911  1
  Co  Co107  1  0.25132014  -0.00237159  0.24730904  1
  Co  Co108  1  0.49847910  0.49842428  0.74683746  1
  Co  Co109  1  0.49937916  0.74989216  0.75283352  1
  Co  Co110  1  0.12377709  0.12158268  0.87339018  1
  Co  Co111  1  0.37287518  0.37336068  0.87496286  1
  Co  Co112  1  0.74746691  0.75113742  0.75255354  1
  Co  Co113  1  0.25086401  0.25021030  0.25481428  1
  Co  Co114  1  0.62581857  0.12439636  0.87566949  1
  Co  Co115  1  0.87046991  0.37871453  0.37491835  1
  Co  Co116  1  0.75040044  0.24778885  0.49703014  1
  Co  Co117  1  0.50246134  0.00011068  0.24656021  1
  Co  Co118  1  0.50044398  0.00495656  0.50221958  1
  Co  Co119  1  0.37586696  0.12678834  0.12420173  1
  Co  Co120  1  0.75208923  0.50131412  0.00513813  1
  Co  Co121  1  0.12381469  0.12659095  0.62050272  1
  Co  Co122  1  0.49709414  0.49730086  0.00351548  1
  Co  Co123  1  0.75016764  0.49885059  0.74726623  1
  Co  Co124  1  -0.00029807  0.49914919  0.25053793  1
  Co  Co125  1  0.00074853  0.74818560  0.75298790  1
  Co  Co126  1  -0.00234685  -0.00235305  0.24533667  1
  Co  Co127  1  -0.00243691  -0.00161751  0.50517132  1
