# generated using pymatgen
data_Fe45Co19
_symmetry_space_group_name_H-M   'P 1'
_cell_length_a   11.41676303
_cell_length_b   11.41604361
_cell_length_c   11.41478813
_cell_angle_alpha   89.98379557
_cell_angle_beta   89.99718267
_cell_angle_gamma   89.99624590
_symmetry_Int_Tables_number   1
_chemical_formula_structural   Fe45Co19
_chemical_formula_sum   'Fe90 Co38'
_cell_volume   1487.73795273
_cell_formula_units_Z   2
loop_
 _symmetry_equiv_pos_site_id
 _symmetry_equiv_pos_as_xyz
  1  'x, y, z'
loop_
 _atom_site_type_symbol
 _atom_site_label
 _atom_site_symmetry_multiplicity
 _atom_site_fract_x
 _atom_site_fract_y
 _atom_site_fract_z
 _atom_site_occupancy
  Fe  Fe0  1  0.62247967  0.37402484  0.62701211  1
  Fe  Fe1  1  0.12387453  0.37440598  0.12544560  1
  Fe  Fe2  1  0.87531992  0.12253350  0.62664637  1
  Fe  Fe3  1  0.12438567  0.12562393  0.62751326  1
  Fe  Fe4  1  0.62637684  0.62463474  0.87373859  1
  Fe  Fe5  1  0.62348824  0.37527770  0.87496684  1
  Fe  Fe6  1  0.75102374  0.25108886  0.74972899  1
  Fe  Fe7  1  0.62470428  0.37385674  0.37391281  1
  Fe  Fe8  1  0.12385757  0.37483705  0.62532417  1
  Fe  Fe9  1  0.37596877  0.12513844  0.62510022  1
  Fe  Fe10  1  0.12800462  0.62470620  0.87208445  1
  Fe  Fe11  1  0.87599234  0.37595935  0.87693861  1
  Fe  Fe12  1  -0.00152677  0.24950876  0.49959471  1
  Fe  Fe13  1  0.25184833  0.25052885  0.75053538  1
  Fe  Fe14  1  0.74969703  -0.00429819  0.24983731  1
  Fe  Fe15  1  0.62551880  0.87424687  0.12180693  1
  Fe  Fe16  1  0.87793702  0.12523921  0.87533579  1
  Fe  Fe17  1  0.62474074  0.87491895  0.87855479  1
  Fe  Fe18  1  0.25063256  0.74939834  0.50108583  1
  Fe  Fe19  1  0.00341013  0.50025441  -0.00029492  1
  Fe  Fe20  1  0.75117219  0.25001016  0.49982716  1
  Fe  Fe21  1  0.74612755  0.49883120  0.00273602  1
  Fe  Fe22  1  0.37392760  0.12381813  0.12427622  1
  Fe  Fe23  1  0.24926853  0.49898668  0.24952469  1
  Fe  Fe24  1  0.62499975  0.62763323  0.12669332  1
  Fe  Fe25  1  0.12501501  0.37506060  0.37584562  1
  Fe  Fe26  1  0.87410782  0.62096422  0.12681084  1
  Fe  Fe27  1  0.75138394  0.75336422  0.49549884  1
  Fe  Fe28  1  0.49992881  -0.00211907  0.24776790  1
  Fe  Fe29  1  0.00265895  -0.00033032  0.25087144  1
  Fe  Fe30  1  0.75335746  0.25344360  0.24647082  1
  Fe  Fe31  1  0.50040329  -0.00121619  0.75276644  1
  Fe  Fe32  1  0.37598896  0.62691582  0.62942392  1
  Fe  Fe33  1  0.12105617  0.87178377  0.62499665  1
  Fe  Fe34  1  0.75103257  0.75141607  0.75218739  1
  Fe  Fe35  1  0.12395856  0.87125799  0.37585237  1
  Fe  Fe36  1  0.37150209  0.87712731  0.11824133  1
  Fe  Fe37  1  0.74705395  0.50081419  0.49799116  1
  Fe  Fe38  1  -0.00431682  0.25280282  0.24882741  1
  Fe  Fe39  1  0.87860199  0.87650446  0.12373533  1
  Fe  Fe40  1  0.49743446  0.24973821  0.25071407  1
  Fe  Fe41  1  0.12352816  0.62710147  0.62834453  1
  Fe  Fe42  1  0.87454933  0.62568756  0.62701990  1
  Fe  Fe43  1  0.49567389  0.74737389  -0.00095967  1
  Fe  Fe44  1  0.00159864  0.50353122  0.49713062  1
  Fe  Fe45  1  0.50083212  0.50299468  0.49999254  1
  Fe  Fe46  1  -0.00066267  0.74807547  0.25053065  1
  Fe  Fe47  1  0.12673769  0.12660516  0.37466030  1
  Fe  Fe48  1  0.12295446  0.37277554  0.87273374  1
  Fe  Fe49  1  0.87707433  0.87405461  0.62440241  1
  Fe  Fe50  1  0.37550338  0.62619699  0.37264502  1
  Fe  Fe51  1  0.62328839  0.63201322  0.37065353  1
  Fe  Fe52  1  0.37703364  0.37793772  0.87578217  1
  Fe  Fe53  1  0.37690157  0.37788941  0.12234232  1
  Fe  Fe54  1  0.37847089  0.37447678  0.62551298  1
  Fe  Fe55  1  0.87535603  0.87577820  0.87725743  1
  Fe  Fe56  1  0.25375834  0.25160671  0.25250710  1
  Fe  Fe57  1  0.24843412  0.24981232  -0.00069434  1
  Fe  Fe58  1  0.12762830  0.87304681  0.87694970  1
  Fe  Fe59  1  0.62640425  0.12370891  0.87703022  1
  Fe  Fe60  1  0.49776860  0.24817503  0.49643586  1
  Fe  Fe61  1  0.87338215  0.62242547  0.87435634  1
  Fe  Fe62  1  0.62455420  0.12556423  0.62535128  1
  Fe  Fe63  1  0.75257518  0.74984171  0.00201371  1
  Fe  Fe64  1  0.25305075  0.24948400  0.49761927  1
  Fe  Fe65  1  0.12497361  0.12754846  0.12624114  1
  Fe  Fe66  1  0.00076530  0.74751567  -0.00083388  1
  Fe  Fe67  1  0.00406211  0.00273598  -0.00068574  1
  Fe  Fe68  1  0.50149820  0.50053433  0.24813756  1
  Fe  Fe69  1  0.50149348  -0.00052481  0.49893330  1
  Fe  Fe70  1  0.62477994  0.87313482  0.62436795  1
  Fe  Fe71  1  0.37650217  0.87409449  0.37611844  1
  Fe  Fe72  1  0.25081707  0.50174376  0.50092452  1
  Fe  Fe73  1  0.75196727  0.24871060  0.00504042  1
  Fe  Fe74  1  0.62577256  0.62773245  0.62724922  1
  Fe  Fe75  1  0.24968764  -0.00077891  0.50021080  1
  Fe  Fe76  1  0.87287952  0.62302525  0.37126398  1
  Fe  Fe77  1  0.87539063  0.37813018  0.62389882  1
  Fe  Fe78  1  0.24833915  -0.00154658  0.24904450  1
  Fe  Fe79  1  0.87327194  0.12369133  0.37440631  1
  Fe  Fe80  1  0.37126458  0.62307904  0.87363431  1
  Fe  Fe81  1  0.12723123  0.62576294  0.12549963  1
  Fe  Fe82  1  0.37355696  0.12147581  0.87712907  1
  Fe  Fe83  1  0.50115210  0.24739224  0.00098730  1
  Fe  Fe84  1  0.25168354  0.75113776  0.24676493  1
  Fe  Fe85  1  0.24890089  -0.00111728  0.75065238  1
  Fe  Fe86  1  0.62623409  0.12356392  0.37291706  1
  Fe  Fe87  1  0.37745524  0.87290032  0.62745396  1
  Fe  Fe88  1  0.75029970  -0.00102352  0.75101743  1
  Fe  Fe89  1  -0.00002669  0.00036201  0.49905829  1
  Co  Co90  1  0.00342830  0.50031019  0.25101783  1
  Co  Co91  1  0.24951141  0.75270494  0.74968264  1
  Co  Co92  1  0.75281625  0.75419951  0.24873881  1
  Co  Co93  1  0.87495422  0.37854574  0.37565488  1
  Co  Co94  1  0.49941099  0.24801487  0.75330241  1
  Co  Co95  1  0.49598597  0.75342071  0.24380740  1
  Co  Co96  1  0.12922028  0.62711814  0.37320373  1
  Co  Co97  1  0.50027754  0.75014169  0.75433339  1
  Co  Co98  1  -0.00115142  0.24964592  0.00331349  1
  Co  Co99  1  0.62234736  0.37345402  0.12432607  1
  Co  Co100  1  0.49874543  0.74912352  0.50106282  1
  Co  Co101  1  -0.00159555  0.74643964  0.49720563  1
  Co  Co102  1  0.87853513  0.87605432  0.37439583  1
  Co  Co103  1  0.24977746  0.49679020  0.74821413  1
  Co  Co104  1  -0.00076019  0.50049135  0.75069342  1
  Co  Co105  1  0.37264365  0.87702558  0.87811744  1
  Co  Co106  1  0.50132215  0.00125357  0.00140480  1
  Co  Co107  1  0.00072780  -0.00229092  0.75163816  1
  Co  Co108  1  0.74966830  -0.00206199  0.49943834  1
  Co  Co109  1  0.50195476  0.50369821  -0.00047365  1
  Co  Co110  1  0.87595921  0.38153043  0.12352066  1
  Co  Co111  1  0.12319778  0.87248207  0.12395223  1
  Co  Co112  1  0.62603703  0.12487189  0.12762128  1
  Co  Co113  1  0.37547536  0.37979446  0.37561420  1
  Co  Co114  1  0.74927310  0.49824581  0.74977501  1
  Co  Co115  1  0.25067822  0.74779023  0.00114652  1
  Co  Co116  1  0.24692592  0.49806454  -0.00011273  1
  Co  Co117  1  -0.00117279  0.74923970  0.75403923  1
  Co  Co118  1  0.50083270  0.50189134  0.75009382  1
  Co  Co119  1  0.37262290  0.62085441  0.12459695  1
  Co  Co120  1  0.37433100  0.12045236  0.37431999  1
  Co  Co121  1  0.12327849  0.12822261  0.87185369  1
  Co  Co122  1  -0.00245579  0.25198927  0.74764648  1
  Co  Co123  1  0.24385823  0.00338032  0.00068180  1
  Co  Co124  1  0.75103585  0.00144491  0.00103053  1
  Co  Co125  1  0.62167542  0.87271339  0.37484380  1
  Co  Co126  1  0.87638359  0.12066916  0.12568637  1
  Co  Co127  1  0.74549914  0.49815489  0.24963647  1
