# generated using pymatgen
data_Fe45Co19
_symmetry_space_group_name_H-M   'P 1'
_cell_length_a   11.41433498
_cell_length_b   11.41449468
_cell_length_c   11.41509333
_cell_angle_alpha   90.00136432
_cell_angle_beta   90.00694361
_cell_angle_gamma   90.01162461
_symmetry_Int_Tables_number   1
_chemical_formula_structural   Fe45Co19
_chemical_formula_sum   'Fe90 Co38'
_cell_volume   1487.25952237
_cell_formula_units_Z   2
loop_
 _symmetry_equiv_pos_site_id
 _symmetry_equiv_pos_as_xyz
  1  'x, y, z'
loop_
 _atom_site_type_symbol
 _atom_site_label
 _atom_site_symmetry_multiplicity
 _atom_site_fract_x
 _atom_site_fract_y
 _atom_site_fract_z
 _atom_site_occupancy
  Fe  Fe0  1  0.49905667  0.50104398  0.00206603  1
  Fe  Fe1  1  0.37164762  0.62760701  0.12741898  1
  Fe  Fe2  1  0.62370607  0.87744992  0.87227675  1
  Fe  Fe3  1  0.37514076  0.87741242  0.87565019  1
  Fe  Fe4  1  0.87697750  0.37662998  0.12559747  1
  Fe  Fe5  1  0.87535639  0.62671476  0.62661820  1
  Fe  Fe6  1  0.00493563  0.75071368  0.74760378  1
  Fe  Fe7  1  0.49864678  0.75194366  0.00072529  1
  Fe  Fe8  1  0.50067894  0.24837765  0.00185653  1
  Fe  Fe9  1  0.62417456  0.62728963  0.37891066  1
  Fe  Fe10  1  0.75278401  0.50126959  0.00003387  1
  Fe  Fe11  1  0.74989203  0.50231662  0.25091671  1
  Fe  Fe12  1  0.00267134  0.75223591  0.24972623  1
  Fe  Fe13  1  0.24572192  0.24765853  0.24941104  1
  Fe  Fe14  1  0.12257145  0.37516356  0.37595574  1
  Fe  Fe15  1  0.87543068  0.62684020  0.87385938  1
  Fe  Fe16  1  0.75425631  -0.00247940  0.50257399  1
  Fe  Fe17  1  0.62306223  0.37367208  0.62229511  1
  Fe  Fe18  1  0.37264678  0.62524349  0.62379900  1
  Fe  Fe19  1  0.24729004  0.75397840  0.25503779  1
  Fe  Fe20  1  0.12275343  0.37461195  0.87654951  1
  Fe  Fe21  1  0.75173946  0.50191939  0.50051568  1
  Fe  Fe22  1  0.12246440  0.12399118  0.87641058  1
  Fe  Fe23  1  0.24819881  0.49991271  0.00245346  1
  Fe  Fe24  1  0.62813449  0.87357031  0.12346852  1
  Fe  Fe25  1  0.37432871  0.12171902  0.12676859  1
  Fe  Fe26  1  0.37622413  0.12494098  0.37321366  1
  Fe  Fe27  1  0.50113195  0.75134579  0.25051189  1
  Fe  Fe28  1  0.25338289  0.25264102  0.49808751  1
  Fe  Fe29  1  0.49342993  0.49691475  0.49814640  1
  Fe  Fe30  1  0.37722794  0.12324728  0.87589534  1
  Fe  Fe31  1  0.12768914  0.62460903  0.62023894  1
  Fe  Fe32  1  0.37057927  0.87628619  0.12543386  1
  Fe  Fe33  1  0.12433366  0.37645197  0.62266809  1
  Fe  Fe34  1  0.62521838  0.37545248  0.87665965  1
  Fe  Fe35  1  0.24344037  -0.00147769  0.25586813  1
  Fe  Fe36  1  0.12545184  0.62481615  0.87686529  1
  Fe  Fe37  1  0.62905214  0.12501503  0.12351048  1
  Fe  Fe38  1  0.37452069  0.37429902  0.87553341  1
  Fe  Fe39  1  0.74580158  0.74991830  0.74581505  1
  Fe  Fe40  1  0.49956202  0.75177921  0.74671830  1
  Fe  Fe41  1  0.12796356  0.87695783  0.61907677  1
  Fe  Fe42  1  0.50046875  0.50036295  0.74882081  1
  Fe  Fe43  1  0.87556296  0.87465173  0.12791709  1
  Fe  Fe44  1  0.50096050  0.50174886  0.24949031  1
  Fe  Fe45  1  0.24949821  0.75170296  0.74986277  1
  Fe  Fe46  1  0.87697362  0.37642377  0.37459770  1
  Fe  Fe47  1  0.00066543  0.50010323  0.74869493  1
  Fe  Fe48  1  -0.00192289  0.24915248  0.50105297  1
  Fe  Fe49  1  0.87489599  0.62731566  0.37334492  1
  Fe  Fe50  1  0.62498299  0.62634228  0.87581267  1
  Fe  Fe51  1  0.37403611  0.62511265  0.87475065  1
  Fe  Fe52  1  0.74980435  -0.00069237  0.25051850  1
  Fe  Fe53  1  0.12573519  0.12290187  0.62110951  1
  Fe  Fe54  1  0.24804825  0.24938345  0.75046163  1
  Fe  Fe55  1  0.12618244  0.87655740  0.87880339  1
  Fe  Fe56  1  0.87550279  0.87244802  0.87064045  1
  Fe  Fe57  1  0.50174623  0.24818069  0.74923806  1
  Fe  Fe58  1  0.37447994  0.12595633  0.62438345  1
  Fe  Fe59  1  0.87617704  0.12615723  0.87326692  1
  Fe  Fe60  1  0.00121844  -0.00063196  0.74856029  1
  Fe  Fe61  1  0.62490663  0.12192898  0.87494714  1
  Fe  Fe62  1  0.37409090  0.37351214  0.12748624  1
  Fe  Fe63  1  0.49636927  0.75309810  0.50116957  1
  Fe  Fe64  1  0.62714393  0.87480547  0.37807784  1
  Fe  Fe65  1  0.87458432  0.37438180  0.62567031  1
  Fe  Fe66  1  0.24743116  0.49927453  0.25199700  1
  Fe  Fe67  1  -0.00140414  0.24888222  0.00192532  1
  Fe  Fe68  1  0.87555197  0.12470727  0.62753486  1
  Fe  Fe69  1  0.62838156  0.62790944  0.12311068  1
  Fe  Fe70  1  0.24899845  0.49865870  0.74865374  1
  Fe  Fe71  1  0.12506263  0.62431105  0.37868330  1
  Fe  Fe72  1  0.74836964  0.24710731  0.49845549  1
  Fe  Fe73  1  0.62387331  0.37477595  0.37561372  1
  Fe  Fe74  1  0.12090335  0.11948237  0.12381648  1
  Fe  Fe75  1  0.87712589  0.12100536  0.37249831  1
  Fe  Fe76  1  0.75322352  -0.00062168  -0.00156478  1
  Fe  Fe77  1  0.24881635  0.24775320  0.00202489  1
  Fe  Fe78  1  0.49806920  0.00042177  0.50248171  1
  Fe  Fe79  1  0.00031436  0.24804254  0.24994620  1
  Fe  Fe80  1  0.00065163  0.74898147  0.00248602  1
  Fe  Fe81  1  0.87718299  0.37476631  0.87457003  1
  Fe  Fe82  1  0.74825050  0.50135062  0.74759794  1
  Fe  Fe83  1  -0.00358887  0.75218261  0.50049404  1
  Fe  Fe84  1  0.75063875  0.24901139  0.25133803  1
  Fe  Fe85  1  0.50307549  -0.00139831  0.24856578  1
  Fe  Fe86  1  0.50366467  0.24763690  0.25075748  1
  Fe  Fe87  1  0.74824787  0.24940241  0.75007742  1
  Fe  Fe88  1  0.62713987  0.37388303  0.12471768  1
  Fe  Fe89  1  0.25013687  0.00064293  0.75047878  1
  Co  Co90  1  0.00490494  -0.00349851  0.25316935  1
  Co  Co91  1  0.12215324  0.37493340  0.12558586  1
  Co  Co92  1  0.37768263  0.87801375  0.37306624  1
  Co  Co93  1  0.49721762  -0.00021167  0.74600260  1
  Co  Co94  1  0.25419518  0.75125199  0.49591349  1
  Co  Co95  1  0.00177514  0.24997360  0.74755668  1
  Co  Co96  1  0.87614164  0.87360390  0.62916408  1
  Co  Co97  1  0.12715647  0.87671760  0.12123387  1
  Co  Co98  1  0.75214983  0.24936087  -0.00042831  1
  Co  Co99  1  0.75105204  0.75233387  -0.00191412  1
  Co  Co100  1  0.25273685  0.00054435  0.49560235  1
  Co  Co101  1  0.87343822  0.62749246  0.12643700  1
  Co  Co102  1  0.62603147  0.12286652  0.62512992  1
  Co  Co103  1  0.62588202  0.12099375  0.37609939  1
  Co  Co104  1  -0.00298953  0.50099627  0.50037680  1
  Co  Co105  1  0.37637610  0.37287566  0.62876053  1
  Co  Co106  1  0.62163409  0.62440679  0.62050287  1
  Co  Co107  1  -0.00021515  0.50368452  0.00103234  1
  Co  Co108  1  0.12759557  0.62747776  0.12635433  1
  Co  Co109  1  0.74794909  0.74927739  0.25249394  1
  Co  Co110  1  0.25121655  0.74969603  -0.00170865  1
  Co  Co111  1  -0.00440145  -0.00055792  0.50037323  1
  Co  Co112  1  0.50070536  -0.00080640  0.00337570  1
  Co  Co113  1  0.75276304  0.00034850  0.75027164  1
  Co  Co114  1  0.00115007  0.50309287  0.24958326  1
  Co  Co115  1  0.87613430  0.12266357  0.12796440  1
  Co  Co116  1  -0.00485848  -0.00266243  -0.00139665  1
  Co  Co117  1  0.12265270  0.12676814  0.37955152  1
  Co  Co118  1  0.25106021  0.00219991  -0.00149158  1
  Co  Co119  1  0.37016610  0.87593008  0.62539069  1
  Co  Co120  1  0.25411697  0.49632122  0.49769488  1
  Co  Co121  1  0.62608362  0.87793794  0.62471211  1
  Co  Co122  1  0.75242091  0.75114702  0.50215024  1
  Co  Co123  1  0.87373387  0.87514318  0.37221761  1
  Co  Co124  1  0.37580016  0.37141397  0.36802702  1
  Co  Co125  1  0.49987800  0.24837924  0.49775223  1
  Co  Co126  1  0.37512950  0.62580548  0.37294694  1
  Co  Co127  1  0.12187626  0.87500871  0.38276610  1
