# generated using pymatgen
data_Fe45Co19
_symmetry_space_group_name_H-M   'P 1'
_cell_length_a   11.41479380
_cell_length_b   11.41576410
_cell_length_c   11.41585521
_cell_angle_alpha   90.00352188
_cell_angle_beta   89.99312452
_cell_angle_gamma   90.00900746
_symmetry_Int_Tables_number   1
_chemical_formula_structural   Fe45Co19
_chemical_formula_sum   'Fe90 Co38'
_cell_volume   1487.58400039
_cell_formula_units_Z   2
loop_
 _symmetry_equiv_pos_site_id
 _symmetry_equiv_pos_as_xyz
  1  'x, y, z'
loop_
 _atom_site_type_symbol
 _atom_site_label
 _atom_site_symmetry_multiplicity
 _atom_site_fract_x
 _atom_site_fract_y
 _atom_site_fract_z
 _atom_site_occupancy
  Fe  Fe0  1  0.12348531  0.12732115  0.37174434  1
  Fe  Fe1  1  0.12678017  0.37293062  0.12087097  1
  Fe  Fe2  1  0.25172812  -0.00202634  0.74983139  1
  Fe  Fe3  1  0.12617179  0.62420135  0.37421317  1
  Fe  Fe4  1  0.87374616  0.37609991  0.62449955  1
  Fe  Fe5  1  0.74731091  -0.00304547  0.74857297  1
  Fe  Fe6  1  -0.00346543  0.75000651  0.75162094  1
  Fe  Fe7  1  0.87663855  0.37309187  0.87801109  1
  Fe  Fe8  1  0.50165099  -0.00037194  0.24866383  1
  Fe  Fe9  1  0.50251430  -0.00463989  0.74874176  1
  Fe  Fe10  1  0.37512379  0.87635605  0.37641477  1
  Fe  Fe11  1  0.50482881  0.00066641  0.00084600  1
  Fe  Fe12  1  0.25048599  0.00112772  0.24890271  1
  Fe  Fe13  1  0.87186561  0.12579735  0.62460701  1
  Fe  Fe14  1  0.62654558  0.12583076  0.87385351  1
  Fe  Fe15  1  0.63049949  0.87354149  0.12228350  1
  Fe  Fe16  1  0.12209356  0.87494861  0.12487027  1
  Fe  Fe17  1  -0.00144100  0.00234527  -0.00044213  1
  Fe  Fe18  1  0.12386000  0.62622873  0.12496337  1
  Fe  Fe19  1  0.37432550  0.37693487  0.37653143  1
  Fe  Fe20  1  0.74886520  0.25323803  0.74903609  1
  Fe  Fe21  1  0.12420177  0.12530742  0.62851749  1
  Fe  Fe22  1  0.12619950  0.62602902  0.62887080  1
  Fe  Fe23  1  0.75001494  0.49953843  0.75228634  1
  Fe  Fe24  1  -0.00508229  0.75078827  0.25222610  1
  Fe  Fe25  1  0.74988510  0.25389375  0.24821492  1
  Fe  Fe26  1  0.87265321  0.12578250  0.37736419  1
  Fe  Fe27  1  0.37534225  0.37632984  0.11936382  1
  Fe  Fe28  1  0.37520033  0.87738765  0.12271263  1
  Fe  Fe29  1  0.24994201  0.74873897  -0.00024986  1
  Fe  Fe30  1  0.86965111  0.87327284  0.87841794  1
  Fe  Fe31  1  0.25239923  0.24915983  0.24719556  1
  Fe  Fe32  1  0.74785428  0.49918216  0.49898496  1
  Fe  Fe33  1  0.00008884  0.00107993  0.50020531  1
  Fe  Fe34  1  0.37687720  0.12270481  0.87594247  1
  Fe  Fe35  1  0.62561001  0.62794600  0.87228302  1
  Fe  Fe36  1  0.87456675  0.12842878  0.87424804  1
  Fe  Fe37  1  0.75138197  0.74727885  0.49769054  1
  Fe  Fe38  1  0.49609059  0.75582445  0.75049167  1
  Fe  Fe39  1  0.87325519  0.12729335  0.12267061  1
  Fe  Fe40  1  0.24927952  0.25013627  0.49993999  1
  Fe  Fe41  1  0.49757564  0.49946533  0.50169778  1
  Fe  Fe42  1  0.00225544  0.50094519  -0.00150333  1
  Fe  Fe43  1  0.37717156  0.62299458  0.12520625  1
  Fe  Fe44  1  0.50134066  0.25262936  0.74961993  1
  Fe  Fe45  1  0.24932864  0.49921446  0.75259381  1
  Fe  Fe46  1  0.49987348  0.75119718  0.24963663  1
  Fe  Fe47  1  0.12484354  0.87416278  0.37538210  1
  Fe  Fe48  1  0.62384782  0.62582063  0.62772031  1
  Fe  Fe49  1  0.74889517  0.49852418  0.25058112  1
  Fe  Fe50  1  0.50268138  0.24808286  0.00057888  1
  Fe  Fe51  1  0.62420581  0.62399905  0.12675270  1
  Fe  Fe52  1  0.62751609  0.87422515  0.37595322  1
  Fe  Fe53  1  0.49941776  0.49727956  0.75215845  1
  Fe  Fe54  1  -0.00167737  0.25268917  0.24778988  1
  Fe  Fe55  1  0.37370334  0.37445549  0.87928812  1
  Fe  Fe56  1  0.25048884  0.49955382  0.24902479  1
  Fe  Fe57  1  0.62364345  0.37685015  0.12220902  1
  Fe  Fe58  1  0.24713929  0.00517633  0.00181828  1
  Fe  Fe59  1  -0.00304547  -0.00168072  0.24949216  1
  Fe  Fe60  1  -0.00204756  0.74844002  0.49818834  1
  Fe  Fe61  1  0.12579525  0.87316661  0.62560705  1
  Fe  Fe62  1  0.37769982  0.12548225  0.37457627  1
  Fe  Fe63  1  0.00358897  0.49882209  0.49888759  1
  Fe  Fe64  1  -0.00210840  0.74792335  -0.00162447  1
  Fe  Fe65  1  0.50087525  0.74976511  -0.00060718  1
  Fe  Fe66  1  0.87501491  0.37610308  0.37579237  1
  Fe  Fe67  1  0.50390093  0.25231070  0.50244842  1
  Fe  Fe68  1  0.24957327  0.24977210  0.75338549  1
  Fe  Fe69  1  0.00162374  0.49806072  0.24973313  1
  Fe  Fe70  1  0.87424245  0.62365881  0.12600065  1
  Fe  Fe71  1  0.37706625  0.12582948  0.62553227  1
  Fe  Fe72  1  0.74801748  0.50091059  -0.00218737  1
  Fe  Fe73  1  -0.00226539  -0.00138712  0.74993402  1
  Fe  Fe74  1  0.37359517  0.62609718  0.87443985  1
  Fe  Fe75  1  0.62258418  0.62327046  0.37257628  1
  Fe  Fe76  1  0.12607482  0.87432066  0.87508849  1
  Fe  Fe77  1  0.24885169  0.00239525  0.49986594  1
  Fe  Fe78  1  0.62760115  0.12703772  0.37402999  1
  Fe  Fe79  1  0.25336833  0.74622747  0.50185448  1
  Fe  Fe80  1  0.25209432  0.75051277  0.24931816  1
  Fe  Fe81  1  0.12700033  0.37464226  0.62594944  1
  Fe  Fe82  1  0.87510055  0.62251186  0.62543433  1
  Fe  Fe83  1  -0.00016857  0.25050760  0.50172598  1
  Fe  Fe84  1  0.50072851  0.25186087  0.24852017  1
  Fe  Fe85  1  0.87221136  0.87436596  0.62214567  1
  Fe  Fe86  1  0.49702209  0.74780896  0.50008587  1
  Fe  Fe87  1  0.50431800  0.00123492  0.50234159  1
  Fe  Fe88  1  0.75191509  -0.00202590  0.24856708  1
  Fe  Fe89  1  0.00114594  0.49869291  0.75265932  1
  Co  Co90  1  0.37387037  0.37458549  0.62576851  1
  Co  Co91  1  0.37393791  0.87834165  0.88057002  1
  Co  Co92  1  0.49873514  0.49730838  0.24937239  1
  Co  Co93  1  0.12601817  0.37345490  0.37352216  1
  Co  Co94  1  0.74998493  0.00391826  -0.00090499  1
  Co  Co95  1  0.74708928  0.00054306  0.50215973  1
  Co  Co96  1  0.62709783  0.12572622  0.12720548  1
  Co  Co97  1  0.24873819  0.50376621  -0.00106957  1
  Co  Co98  1  0.75341365  0.74928256  0.74913043  1
  Co  Co99  1  0.37514403  0.87747732  0.62090801  1
  Co  Co100  1  0.37849887  0.12386162  0.12501425  1
  Co  Co101  1  0.24869515  0.24359502  -0.00058566  1
  Co  Co102  1  0.12201932  0.12512920  0.12874456  1
  Co  Co103  1  0.12434494  0.37326722  0.87807847  1
  Co  Co104  1  0.62525673  0.37795000  0.62697370  1
  Co  Co105  1  0.74821028  0.25262081  0.50129095  1
  Co  Co106  1  0.25374048  0.75373353  0.75025901  1
  Co  Co107  1  0.87526859  0.62291832  0.87486699  1
  Co  Co108  1  0.62862593  0.87243031  0.87730032  1
  Co  Co109  1  0.87363948  0.87737013  0.37758558  1
  Co  Co110  1  -0.00064412  0.25172438  0.74770465  1
  Co  Co111  1  0.50123083  0.50275168  -0.00356563  1
  Co  Co112  1  0.75189437  0.74900099  0.25180482  1
  Co  Co113  1  0.12526869  0.62774039  0.87218855  1
  Co  Co114  1  0.87584512  0.61985294  0.37387986  1
  Co  Co115  1  0.37587713  0.62287822  0.62998158  1
  Co  Co116  1  0.00253046  0.24749704  0.00013289  1
  Co  Co117  1  0.87491725  0.37694145  0.12141555  1
  Co  Co118  1  0.62494511  0.37411836  0.87596280  1
  Co  Co119  1  0.12187559  0.12443410  0.87092795  1
  Co  Co120  1  0.62391405  0.37586176  0.37485240  1
  Co  Co121  1  0.62556158  0.12722744  0.62762982  1
  Co  Co122  1  0.37547407  0.62260503  0.37154878  1
  Co  Co123  1  0.74969757  0.74411915  0.00080815  1
  Co  Co124  1  0.74758447  0.25088413  0.00031448  1
  Co  Co125  1  0.87318033  0.87286073  0.12127226  1
  Co  Co126  1  0.24994672  0.50192350  0.50084801  1
  Co  Co127  1  0.62592159  0.86970904  0.62382036  1
