# generated using pymatgen
data_Fe45Co19
_symmetry_space_group_name_H-M   'P 1'
_cell_length_a   11.41480976
_cell_length_b   11.41468064
_cell_length_c   11.41437870
_cell_angle_alpha   89.99942658
_cell_angle_beta   89.99855420
_cell_angle_gamma   89.99403582
_symmetry_Int_Tables_number   1
_chemical_formula_structural   Fe45Co19
_chemical_formula_sum   'Fe90 Co38'
_cell_volume   1487.25253585
_cell_formula_units_Z   2
loop_
 _symmetry_equiv_pos_site_id
 _symmetry_equiv_pos_as_xyz
  1  'x, y, z'
loop_
 _atom_site_type_symbol
 _atom_site_label
 _atom_site_symmetry_multiplicity
 _atom_site_fract_x
 _atom_site_fract_y
 _atom_site_fract_z
 _atom_site_occupancy
  Fe  Fe0  1  0.24721224  0.75146379  0.25193485  1
  Fe  Fe1  1  0.62400509  0.37642514  0.12911203  1
  Fe  Fe2  1  0.25055272  0.75139013  -0.00008879  1
  Fe  Fe3  1  0.75027942  -0.00074621  -0.00374255  1
  Fe  Fe4  1  0.25029176  0.00042076  0.50036569  1
  Fe  Fe5  1  0.12477489  0.37583693  0.62308069  1
  Fe  Fe6  1  0.62594263  0.62223977  0.62518957  1
  Fe  Fe7  1  0.12819922  0.12339175  0.87702579  1
  Fe  Fe8  1  -0.00333187  0.50085304  0.50239869  1
  Fe  Fe9  1  0.00084812  0.49848986  0.25055568  1
  Fe  Fe10  1  0.87566631  0.37379544  0.12430123  1
  Fe  Fe11  1  0.87167129  0.37476485  0.37600992  1
  Fe  Fe12  1  0.00069597  0.25109442  0.25153621  1
  Fe  Fe13  1  0.24931112  0.49920374  0.75146454  1
  Fe  Fe14  1  0.62607707  0.37611573  0.62598366  1
  Fe  Fe15  1  0.37876970  0.87457691  0.87206642  1
  Fe  Fe16  1  0.25355854  0.00213080  0.75079430  1
  Fe  Fe17  1  0.49910953  0.74636568  0.49921519  1
  Fe  Fe18  1  0.62096810  0.12966172  0.87144477  1
  Fe  Fe19  1  0.37502977  0.12843731  0.37444501  1
  Fe  Fe20  1  0.87242474  0.12811449  0.62340836  1
  Fe  Fe21  1  0.25039544  0.25030237  0.75049951  1
  Fe  Fe22  1  0.12644007  0.62372011  0.12464694  1
  Fe  Fe23  1  0.87442653  0.87286901  0.62696850  1
  Fe  Fe24  1  0.87501308  0.62523072  0.12553992  1
  Fe  Fe25  1  0.62587838  0.62036216  0.37429649  1
  Fe  Fe26  1  0.00441739  0.74500597  0.74902088  1
  Fe  Fe27  1  0.12724592  0.62273966  0.37663427  1
  Fe  Fe28  1  0.74954070  0.74886607  -0.00035168  1
  Fe  Fe29  1  -0.00013706  0.50026360  -0.00001936  1
  Fe  Fe30  1  0.87477049  0.37262983  0.62496839  1
  Fe  Fe31  1  0.49863713  0.00230846  0.25037504  1
  Fe  Fe32  1  0.37193080  0.12868269  0.12325953  1
  Fe  Fe33  1  0.00095754  0.24997813  0.74956390  1
  Fe  Fe34  1  0.12263921  0.37713877  0.87538053  1
  Fe  Fe35  1  0.37692398  0.87338899  0.62598606  1
  Fe  Fe36  1  0.87532013  0.87532007  0.37610391  1
  Fe  Fe37  1  0.37570079  0.62626556  0.12809760  1
  Fe  Fe38  1  0.62639346  0.12489948  0.12780767  1
  Fe  Fe39  1  0.74841733  0.74902519  0.75191012  1
  Fe  Fe40  1  0.24781356  0.74779577  0.74965729  1
  Fe  Fe41  1  -0.00054595  0.00165060  0.75011293  1
  Fe  Fe42  1  0.50502644  0.25329922  0.49520881  1
  Fe  Fe43  1  0.62164941  0.87488806  0.87337894  1
  Fe  Fe44  1  0.50074880  0.00159256  0.49976250  1
  Fe  Fe45  1  0.37506066  0.62383106  0.87569023  1
  Fe  Fe46  1  0.25101771  0.49757505  0.00178243  1
  Fe  Fe47  1  0.49729774  0.49974612  0.74838036  1
  Fe  Fe48  1  0.37553133  0.87341312  0.37519502  1
  Fe  Fe49  1  0.74653591  0.25359893  -0.00162502  1
  Fe  Fe50  1  0.24647921  0.24949331  0.49919508  1
  Fe  Fe51  1  0.12734787  0.12371811  0.12169503  1
  Fe  Fe52  1  0.00099764  0.00006947  0.24866638  1
  Fe  Fe53  1  0.12657059  0.87599137  0.62318635  1
  Fe  Fe54  1  0.24814283  -0.00207277  0.24999628  1
  Fe  Fe55  1  0.87395821  0.12699705  0.87547717  1
  Fe  Fe56  1  -0.00100527  0.75065352  -0.00043107  1
  Fe  Fe57  1  0.75161043  -0.00019536  0.25107647  1
  Fe  Fe58  1  0.87315029  0.12626010  0.12353810  1
  Fe  Fe59  1  0.62411172  0.87560091  0.12433106  1
  Fe  Fe60  1  0.00143214  0.74793844  0.50163176  1
  Fe  Fe61  1  0.24541731  0.25471918  0.25108689  1
  Fe  Fe62  1  0.00209713  0.24930324  -0.00003113  1
  Fe  Fe63  1  0.87193803  0.12563186  0.37786578  1
  Fe  Fe64  1  0.12382924  0.87663435  0.87741084  1
  Fe  Fe65  1  0.62280667  0.62077504  0.87580617  1
  Fe  Fe66  1  0.74967058  -0.00014058  0.74982451  1
  Fe  Fe67  1  0.37656807  0.87358152  0.12683667  1
  Fe  Fe68  1  0.37992297  0.37159716  0.87718192  1
  Fe  Fe69  1  0.50087019  0.74733522  0.00059457  1
  Fe  Fe70  1  0.62303276  0.87401978  0.62640634  1
  Fe  Fe71  1  0.75325811  0.49698570  0.75196558  1
  Fe  Fe72  1  0.12418021  0.12513927  0.37659964  1
  Fe  Fe73  1  0.62490593  0.87697939  0.37559444  1
  Fe  Fe74  1  -0.00051512  0.00147006  0.50153405  1
  Fe  Fe75  1  0.37318180  0.62496642  0.62361172  1
  Fe  Fe76  1  0.74998556  0.74851125  0.50014619  1
  Fe  Fe77  1  0.37432961  0.37437129  0.62145753  1
  Fe  Fe78  1  0.49613844  0.49970269  0.25284389  1
  Fe  Fe79  1  0.49742706  0.00350281  -0.00097892  1
  Fe  Fe80  1  0.00252686  0.75111642  0.25065225  1
  Fe  Fe81  1  0.87273454  0.62412781  0.37481997  1
  Fe  Fe82  1  0.62606026  0.12695674  0.62536299  1
  Fe  Fe83  1  0.25376861  0.50026228  0.49597217  1
  Fe  Fe84  1  0.37565104  0.37229365  0.12626162  1
  Fe  Fe85  1  0.74750238  0.74881862  0.24850549  1
  Fe  Fe86  1  0.87486236  0.87574111  0.12399050  1
  Fe  Fe87  1  0.87674606  0.62352644  0.87310181  1
  Fe  Fe88  1  0.74907207  0.49822783  0.00039369  1
  Fe  Fe89  1  0.37637371  0.12711819  0.62452243  1
  Co  Co90  1  0.62016062  0.37549483  0.87298638  1
  Co  Co91  1  0.49990962  0.74456973  0.74918712  1
  Co  Co92  1  0.87836790  0.37513490  0.87653559  1
  Co  Co93  1  0.50155055  0.24906596  0.25165152  1
  Co  Co94  1  0.62707707  0.12286190  0.37307406  1
  Co  Co95  1  0.00044470  0.50094828  0.74717230  1
  Co  Co96  1  0.62838107  0.38012055  0.37071126  1
  Co  Co97  1  0.49902841  0.49894972  0.49898544  1
  Co  Co98  1  0.12391723  0.87577082  0.12235573  1
  Co  Co99  1  0.12420117  0.87632217  0.37792531  1
  Co  Co100  1  0.74962128  -0.00124134  0.50255091  1
  Co  Co101  1  0.00044600  0.24998717  0.49933076  1
  Co  Co102  1  0.12564871  0.62267792  0.87851762  1
  Co  Co103  1  0.25031390  0.49725009  0.24921353  1
  Co  Co104  1  0.12568943  0.12541777  0.62569863  1
  Co  Co105  1  0.12254290  0.37615391  0.12394168  1
  Co  Co106  1  0.50339658  0.24936007  0.00378636  1
  Co  Co107  1  0.62278973  0.62261747  0.12585194  1
  Co  Co108  1  -0.00226480  0.00059773  0.00031469  1
  Co  Co109  1  0.25129162  0.75083396  0.49978263  1
  Co  Co110  1  0.75165191  0.49946730  0.50233006  1
  Co  Co111  1  0.87663187  0.87360872  0.87244223  1
  Co  Co112  1  0.24864111  0.25427194  -0.00147176  1
  Co  Co113  1  0.75312783  0.50090354  0.24643750  1
  Co  Co114  1  0.12894815  0.62065840  0.62132887  1
  Co  Co115  1  0.49841429  0.49933311  0.00203524  1
  Co  Co116  1  0.25476376  -0.00253989  -0.00146835  1
  Co  Co117  1  0.37673425  0.13010684  0.87569450  1
  Co  Co118  1  0.50377245  0.74997212  0.25186532  1
  Co  Co119  1  0.37411201  0.37141695  0.37509839  1
  Co  Co120  1  0.75119878  0.25273586  0.75190826  1
  Co  Co121  1  0.75085168  0.25019885  0.25085159  1
  Co  Co122  1  0.37365087  0.62658878  0.37286111  1
  Co  Co123  1  0.12446667  0.37773166  0.37872587  1
  Co  Co124  1  0.49799583  0.25263625  0.74515592  1
  Co  Co125  1  0.49931897  0.00309993  0.74884200  1
  Co  Co126  1  0.74587234  0.25203369  0.49762305  1
  Co  Co127  1  0.87309222  0.62674013  0.62773152  1
