# generated using pymatgen
data_Fe45Co19
_symmetry_space_group_name_H-M   'P 1'
_cell_length_a   11.41455834
_cell_length_b   11.41432714
_cell_length_c   11.41523255
_cell_angle_alpha   89.99936690
_cell_angle_beta   89.99523616
_cell_angle_gamma   90.00898148
_symmetry_Int_Tables_number   1
_chemical_formula_structural   Fe45Co19
_chemical_formula_sum   'Fe90 Co38'
_cell_volume   1487.28495210
_cell_formula_units_Z   2
loop_
 _symmetry_equiv_pos_site_id
 _symmetry_equiv_pos_as_xyz
  1  'x, y, z'
loop_
 _atom_site_type_symbol
 _atom_site_label
 _atom_site_symmetry_multiplicity
 _atom_site_fract_x
 _atom_site_fract_y
 _atom_site_fract_z
 _atom_site_occupancy
  Fe  Fe0  1  0.74884233  0.00080438  0.74766629  1
  Fe  Fe1  1  -0.00352262  0.75232337  0.25529396  1
  Fe  Fe2  1  0.62502283  0.62650093  0.12322570  1
  Fe  Fe3  1  0.24683928  0.50085906  0.25160616  1
  Fe  Fe4  1  0.24796910  0.25067165  0.75070950  1
  Fe  Fe5  1  0.50306067  0.49955320  0.25268011  1
  Fe  Fe6  1  0.88170227  0.87903171  0.62657317  1
  Fe  Fe7  1  -0.00149332  0.75091228  -0.00090368  1
  Fe  Fe8  1  0.12292938  0.63159894  0.62155564  1
  Fe  Fe9  1  0.75367438  0.24841759  0.00002907  1
  Fe  Fe10  1  0.12465239  0.62750503  0.12485356  1
  Fe  Fe11  1  0.75338419  0.75497117  0.50114570  1
  Fe  Fe12  1  0.37598639  0.12196096  0.12590677  1
  Fe  Fe13  1  0.62628501  0.12433673  0.12289053  1
  Fe  Fe14  1  0.00094532  0.50117426  0.49834743  1
  Fe  Fe15  1  0.37739901  0.87714689  0.63026256  1
  Fe  Fe16  1  0.87834788  0.87840043  0.87087970  1
  Fe  Fe17  1  0.74718087  0.50137609  0.74965121  1
  Fe  Fe18  1  0.37668172  0.37612784  0.12662110  1
  Fe  Fe19  1  0.75170757  0.75082829  0.25240334  1
  Fe  Fe20  1  0.75082690  0.24804995  0.25210914  1
  Fe  Fe21  1  0.87691380  0.37107118  0.62818174  1
  Fe  Fe22  1  0.12438714  0.37318375  0.62341164  1
  Fe  Fe23  1  0.62779546  0.12419793  0.87679406  1
  Fe  Fe24  1  0.75031589  0.49773303  0.49954471  1
  Fe  Fe25  1  0.12439877  0.37394929  0.87535302  1
  Fe  Fe26  1  0.87423428  0.87755442  0.12676105  1
  Fe  Fe27  1  0.25027256  0.49948105  -0.00009129  1
  Fe  Fe28  1  0.12674256  0.63133424  0.37722544  1
  Fe  Fe29  1  0.49945943  0.49998766  -0.00192433  1
  Fe  Fe30  1  0.75170067  0.75251095  -0.00080028  1
  Fe  Fe31  1  0.49606539  0.75060965  0.00153777  1
  Fe  Fe32  1  0.12672464  0.87304593  0.12627327  1
  Fe  Fe33  1  0.37388346  0.62596389  0.87471091  1
  Fe  Fe34  1  0.37561576  0.62637971  0.37594603  1
  Fe  Fe35  1  0.37458374  0.12112235  0.37448205  1
  Fe  Fe36  1  0.24843004  -0.00298415  0.00041791  1
  Fe  Fe37  1  0.37498753  0.37511450  0.37435962  1
  Fe  Fe38  1  0.00122426  0.50172388  0.74928355  1
  Fe  Fe39  1  0.87715226  0.37638871  0.37339037  1
  Fe  Fe40  1  0.37193656  0.12450788  0.87472226  1
  Fe  Fe41  1  0.87498564  0.37128471  0.86962177  1
  Fe  Fe42  1  0.62522638  0.62689938  0.37940025  1
  Fe  Fe43  1  0.24776233  0.75124371  0.75039597  1
  Fe  Fe44  1  0.74918094  0.74945987  0.74709004  1
  Fe  Fe45  1  0.24747843  0.50049646  0.74913771  1
  Fe  Fe46  1  -0.00229201  0.00229394  -0.00153887  1
  Fe  Fe47  1  0.62250779  0.37584515  0.62211417  1
  Fe  Fe48  1  0.49853219  0.75451688  0.50274778  1
  Fe  Fe49  1  -0.00360797  0.24764212  -0.00214640  1
  Fe  Fe50  1  0.87508299  0.62528249  0.12713367  1
  Fe  Fe51  1  0.12273637  0.37454094  0.12608475  1
  Fe  Fe52  1  0.24215651  -0.00181816  0.74957335  1
  Fe  Fe53  1  0.62344605  0.87308406  0.87196067  1
  Fe  Fe54  1  -0.00042695  0.24717865  0.50060839  1
  Fe  Fe55  1  0.74826614  0.50003811  0.25101439  1
  Fe  Fe56  1  0.49788335  0.75134123  0.24785626  1
  Fe  Fe57  1  0.24941981  0.50023943  0.49938047  1
  Fe  Fe58  1  0.24919605  0.24923450  0.25037728  1
  Fe  Fe59  1  0.24697352  -0.00531900  0.50192463  1
  Fe  Fe60  1  0.87675099  0.37561705  0.12847110  1
  Fe  Fe61  1  0.62611246  0.87759265  0.37677259  1
  Fe  Fe62  1  0.50338357  0.50373628  0.75053229  1
  Fe  Fe63  1  0.37286050  0.12276404  0.62522349  1
  Fe  Fe64  1  0.74916650  0.00036357  0.24813283  1
  Fe  Fe65  1  0.62438304  0.37281950  0.87625625  1
  Fe  Fe66  1  0.87541408  0.62556181  0.62310246  1
  Fe  Fe67  1  0.37518348  0.87487363  0.87338306  1
  Fe  Fe68  1  0.62504789  0.87570597  0.12436428  1
  Fe  Fe69  1  0.50146978  0.24807185  0.25087839  1
  Fe  Fe70  1  0.62471312  0.12158973  0.37792216  1
  Fe  Fe71  1  0.25080924  0.25104493  0.49852196  1
  Fe  Fe72  1  0.12542034  0.12223335  0.37598475  1
  Fe  Fe73  1  0.25328543  0.25271341  0.00060948  1
  Fe  Fe74  1  0.75164104  0.49967730  -0.00010234  1
  Fe  Fe75  1  0.37212178  0.87717813  0.36997283  1
  Fe  Fe76  1  0.87644183  0.11792808  0.37619800  1
  Fe  Fe77  1  -0.00149939  0.50015014  -0.00055151  1
  Fe  Fe78  1  0.62490402  0.37233076  0.12419821  1
  Fe  Fe79  1  0.62246353  0.12097046  0.62207680  1
  Fe  Fe80  1  0.75135193  0.24841813  0.50098092  1
  Fe  Fe81  1  0.12420817  0.12546845  0.12329542  1
  Fe  Fe82  1  0.12480192  0.62836415  0.87645382  1
  Fe  Fe83  1  0.87348928  0.62555781  0.87452012  1
  Fe  Fe84  1  0.37582324  0.37596917  0.62639731  1
  Fe  Fe85  1  -0.00020307  0.24726979  0.25080521  1
  Fe  Fe86  1  0.49812634  0.24905610  0.49944585  1
  Fe  Fe87  1  0.50035493  0.24709954  0.75118071  1
  Fe  Fe88  1  0.50076124  -0.00030299  -0.00071815  1
  Fe  Fe89  1  0.37579509  0.62486193  0.62442293  1
  Co  Co90  1  0.00750795  0.00700553  0.74903657  1
  Co  Co91  1  0.37578408  0.62057950  0.12532632  1
  Co  Co92  1  0.12887486  0.12723673  0.62109415  1
  Co  Co93  1  0.50146589  0.74602709  0.74803702  1
  Co  Co94  1  0.00351014  0.50317588  0.25218961  1
  Co  Co95  1  0.62550586  0.37326386  0.37715080  1
  Co  Co96  1  0.00495056  -0.00092650  0.50209393  1
  Co  Co97  1  0.25515277  0.75442880  0.50314253  1
  Co  Co98  1  0.37423358  0.87933832  0.12645934  1
  Co  Co99  1  0.87330691  0.88376304  0.37514013  1
  Co  Co100  1  0.49659522  -0.00307800  0.49932205  1
  Co  Co101  1  0.87575866  0.12519982  0.62792325  1
  Co  Co102  1  0.24673236  0.00164304  0.24889087  1
  Co  Co103  1  0.11912749  0.86844548  0.62500122  1
  Co  Co104  1  0.49804116  0.49953266  0.49882218  1
  Co  Co105  1  0.25400606  0.74841749  0.24622049  1
  Co  Co106  1  0.50269352  0.00010494  0.24955727  1
  Co  Co107  1  0.74371059  0.24892180  0.74618744  1
  Co  Co108  1  0.62671496  0.62874847  0.87821193  1
  Co  Co109  1  0.25293181  0.75066903  0.00107609  1
  Co  Co110  1  0.00581478  0.24469614  0.75049854  1
  Co  Co111  1  0.62629038  0.62594497  0.61890990  1
  Co  Co112  1  -0.00145980  0.74701094  0.75167421  1
  Co  Co113  1  0.12830737  0.12615578  0.87987553  1
  Co  Co114  1  0.50047092  0.00433539  0.75247717  1
  Co  Co115  1  0.49818262  0.24770584  -0.00087083  1
  Co  Co116  1  0.12226216  0.87335973  0.87559997  1
  Co  Co117  1  0.75079425  -0.00076810  0.50528415  1
  Co  Co118  1  0.37585176  0.37557413  0.87211482  1
  Co  Co119  1  0.87207683  0.62210108  0.37534858  1
  Co  Co120  1  0.87265197  0.12518074  0.86886951  1
  Co  Co121  1  0.87457269  0.12226387  0.12676128  1
  Co  Co122  1  0.62196623  0.87691786  0.62703389  1
  Co  Co123  1  -0.00581399  0.75301079  0.49363567  1
  Co  Co124  1  0.12874553  0.87154100  0.37411341  1
  Co  Co125  1  0.75161703  -0.00188762  -0.00158198  1
  Co  Co126  1  0.12350191  0.37292580  0.37597896  1
  Co  Co127  1  0.00322728  -0.00216117  0.24884009  1
