# generated using pymatgen
data_Fe45Co19
_symmetry_space_group_name_H-M   'P 1'
_cell_length_a   11.41543585
_cell_length_b   11.41430851
_cell_length_c   11.41625405
_cell_angle_alpha   90.00611468
_cell_angle_beta   89.99286038
_cell_angle_gamma   90.00125696
_symmetry_Int_Tables_number   1
_chemical_formula_structural   Fe45Co19
_chemical_formula_sum   'Fe90 Co38'
_cell_volume   1487.52996609
_cell_formula_units_Z   2
loop_
 _symmetry_equiv_pos_site_id
 _symmetry_equiv_pos_as_xyz
  1  'x, y, z'
loop_
 _atom_site_type_symbol
 _atom_site_label
 _atom_site_symmetry_multiplicity
 _atom_site_fract_x
 _atom_site_fract_y
 _atom_site_fract_z
 _atom_site_occupancy
  Fe  Fe0  1  0.50028237  0.49821743  0.50231848  1
  Fe  Fe1  1  0.87752251  0.62675294  0.37575163  1
  Fe  Fe2  1  0.87797846  0.11964707  0.62292892  1
  Fe  Fe3  1  0.75177160  0.49883011  0.49913653  1
  Fe  Fe4  1  0.00368522  0.75721611  0.50065172  1
  Fe  Fe5  1  -0.00070077  0.00263656  0.24984537  1
  Fe  Fe6  1  0.37258423  0.12295214  0.11848015  1
  Fe  Fe7  1  0.25125216  0.75142617  0.75287582  1
  Fe  Fe8  1  0.37333887  0.62462630  0.62480456  1
  Fe  Fe9  1  0.62273305  0.12302112  0.87195056  1
  Fe  Fe10  1  0.49823934  0.75171235  0.74917481  1
  Fe  Fe11  1  0.24943579  0.24943665  0.24894304  1
  Fe  Fe12  1  0.37488755  0.62396822  0.87600155  1
  Fe  Fe13  1  0.12433494  0.87614539  0.12643598  1
  Fe  Fe14  1  0.62543782  0.87721971  0.87074165  1
  Fe  Fe15  1  0.74947094  0.00202720  0.25182684  1
  Fe  Fe16  1  0.62681270  0.12307851  0.62822652  1
  Fe  Fe17  1  0.50165634  0.49875788  0.74956661  1
  Fe  Fe18  1  0.74733135  0.75403412  0.50065973  1
  Fe  Fe19  1  0.62610691  0.62456869  0.37403658  1
  Fe  Fe20  1  0.50145226  -0.00052215  0.50194355  1
  Fe  Fe21  1  0.37535765  0.37454510  0.12425649  1
  Fe  Fe22  1  0.12159036  0.87642614  0.87579528  1
  Fe  Fe23  1  -0.00166666  0.75426259  0.74821634  1
  Fe  Fe24  1  0.37522953  0.62387695  0.37580652  1
  Fe  Fe25  1  0.12256468  0.12377786  0.62355064  1
  Fe  Fe26  1  0.12336359  0.62418684  0.12640171  1
  Fe  Fe27  1  0.00046061  0.49796063  0.49953972  1
  Fe  Fe28  1  0.37469147  0.12601951  0.37664819  1
  Fe  Fe29  1  0.24759198  -0.00103135  0.49862866  1
  Fe  Fe30  1  0.74778651  0.75081298  -0.00033671  1
  Fe  Fe31  1  0.62457113  0.37201168  0.37576703  1
  Fe  Fe32  1  0.37681159  0.87889627  0.87910235  1
  Fe  Fe33  1  0.37342631  0.37310131  0.37568183  1
  Fe  Fe34  1  0.24979029  0.75228555  0.00130153  1
  Fe  Fe35  1  0.24792608  0.75252522  0.49768148  1
  Fe  Fe36  1  0.87439383  0.62465870  0.12586383  1
  Fe  Fe37  1  0.24806988  0.49782977  -0.00147588  1
  Fe  Fe38  1  0.25023441  0.00225223  0.75403321  1
  Fe  Fe39  1  0.50248795  0.74988960  0.00189076  1
  Fe  Fe40  1  0.87489596  0.87638542  0.12362583  1
  Fe  Fe41  1  -0.00060166  0.75000268  0.00158550  1
  Fe  Fe42  1  0.37773443  0.87700714  0.37137167  1
  Fe  Fe43  1  0.25130122  0.00138297  0.24859303  1
  Fe  Fe44  1  0.11858692  0.37342775  0.87509802  1
  Fe  Fe45  1  0.24829193  0.49800382  0.50004254  1
  Fe  Fe46  1  0.50152118  0.50026778  0.24917968  1
  Fe  Fe47  1  0.37538781  0.37110944  0.87202222  1
  Fe  Fe48  1  0.24790952  0.49853578  0.25070731  1
  Fe  Fe49  1  0.87854587  0.12182469  0.87644357  1
  Fe  Fe50  1  0.25237649  0.75075157  0.24866873  1
  Fe  Fe51  1  0.87656274  0.62599062  0.62323632  1
  Fe  Fe52  1  0.87445338  0.37160473  0.12321110  1
  Fe  Fe53  1  0.37496936  0.62416350  0.12300429  1
  Fe  Fe54  1  0.87836853  0.37008477  0.37239413  1
  Fe  Fe55  1  0.50279850  0.50097730  -0.00188755  1
  Fe  Fe56  1  0.62176619  0.87683882  0.12936522  1
  Fe  Fe57  1  0.12289825  0.62506623  0.87489141  1
  Fe  Fe58  1  0.37220223  0.87628451  0.62473075  1
  Fe  Fe59  1  0.75121723  0.49780896  0.25097531  1
  Fe  Fe60  1  0.49996811  0.24751602  0.24877010  1
  Fe  Fe61  1  0.74952771  0.75033641  0.25078127  1
  Fe  Fe62  1  0.62768096  0.12695147  0.12455176  1
  Fe  Fe63  1  0.74885628  -0.00001980  -0.00122081  1
  Fe  Fe64  1  0.75341143  0.24904685  0.50023754  1
  Fe  Fe65  1  0.62733976  0.37269785  0.62702000  1
  Fe  Fe66  1  0.87607392  0.87690870  0.37489528  1
  Fe  Fe67  1  0.87257738  0.12740421  0.12504989  1
  Fe  Fe68  1  0.12417822  0.37058518  0.62410769  1
  Fe  Fe69  1  0.75307823  0.24857225  0.75362115  1
  Fe  Fe70  1  0.75327886  0.75265111  0.74894375  1
  Fe  Fe71  1  0.87624782  0.37485667  0.62890351  1
  Fe  Fe72  1  0.24758092  0.49872436  0.74973678  1
  Fe  Fe73  1  0.12561860  0.62793896  0.62580104  1
  Fe  Fe74  1  0.74983976  0.49964176  -0.00407293  1
  Fe  Fe75  1  0.87693988  0.62485720  0.87427042  1
  Fe  Fe76  1  0.12404724  0.12549817  0.87860220  1
  Fe  Fe77  1  0.37262218  0.12727310  0.62737276  1
  Fe  Fe78  1  0.12229797  0.12781851  0.37766392  1
  Fe  Fe79  1  0.50087285  0.24828442  -0.00178896  1
  Fe  Fe80  1  0.74794656  -0.00217306  0.49933194  1
  Fe  Fe81  1  0.62769624  0.37290638  0.12231409  1
  Fe  Fe82  1  0.62602174  0.62595892  0.62634440  1
  Fe  Fe83  1  0.75004992  0.50026077  0.75245868  1
  Fe  Fe84  1  0.49888826  0.25028930  0.50356941  1
  Fe  Fe85  1  0.12134402  0.37446725  0.12519680  1
  Fe  Fe86  1  0.62581928  0.12604981  0.37573180  1
  Fe  Fe87  1  0.12219423  0.62555146  0.37220664  1
  Fe  Fe88  1  0.12629325  0.12527649  0.12085362  1
  Fe  Fe89  1  0.50253991  0.75253261  0.50009852  1
  Co  Co90  1  0.62246703  0.87722343  0.37063344  1
  Co  Co91  1  -0.00214732  0.49843359  0.25022381  1
  Co  Co92  1  0.24642755  0.24798940  0.75153576  1
  Co  Co93  1  0.87539178  0.87548378  0.87841399  1
  Co  Co94  1  0.00142707  0.50132982  0.74706563  1
  Co  Co95  1  0.49532048  0.00098588  0.74876727  1
  Co  Co96  1  0.37289889  0.37458944  0.62724845  1
  Co  Co97  1  0.50374407  0.00126019  0.00070914  1
  Co  Co98  1  0.74931236  0.24994016  0.25240897  1
  Co  Co99  1  0.62471000  0.37253120  0.87509650  1
  Co  Co100  1  0.24848259  -0.00368720  -0.00105292  1
  Co  Co101  1  0.87912553  0.37668171  0.87431297  1
  Co  Co102  1  0.00114468  0.24652325  0.24800847  1
  Co  Co103  1  -0.00085260  0.00025428  0.00259331  1
  Co  Co104  1  0.25126886  0.24966708  0.50144381  1
  Co  Co105  1  0.75180354  0.24801436  -0.00655038  1
  Co  Co106  1  -0.00127663  0.50175620  0.00168598  1
  Co  Co107  1  0.87480531  0.87897472  0.62296193  1
  Co  Co108  1  -0.00209905  0.75170149  0.24863320  1
  Co  Co109  1  0.49913474  0.00671464  0.24898737  1
  Co  Co110  1  0.12911848  0.87712768  0.62931888  1
  Co  Co111  1  0.00382127  -0.00470424  0.49870653  1
  Co  Co112  1  0.62575553  0.87734203  0.63020861  1
  Co  Co113  1  0.87563888  0.12336452  0.37652865  1
  Co  Co114  1  0.37772773  0.87723190  0.12575009  1
  Co  Co115  1  0.75442540  0.00024569  0.75180254  1
  Co  Co116  1  0.24862330  0.25423488  -0.00098127  1
  Co  Co117  1  0.62761224  0.62261568  0.12561845  1
  Co  Co118  1  0.12625120  0.87680181  0.36874140  1
  Co  Co119  1  0.50037718  0.24828478  0.74858821  1
  Co  Co120  1  0.49973174  0.74609730  0.24898767  1
  Co  Co121  1  -0.00187409  0.24866987  0.00112462  1
  Co  Co122  1  -0.00406207  0.25036657  0.50149946  1
  Co  Co123  1  0.00026855  -0.00128365  0.75129124  1
  Co  Co124  1  0.12469526  0.37068112  0.37546334  1
  Co  Co125  1  0.62540356  0.62771187  0.87272976  1
  Co  Co126  1  -0.00088283  0.24641281  0.74964233  1
  Co  Co127  1  0.37396734  0.12621007  0.87858786  1
