# generated using pymatgen
data_Fe45Co19
_symmetry_space_group_name_H-M   'P 1'
_cell_length_a   11.41544543
_cell_length_b   11.41485195
_cell_length_c   11.41363156
_cell_angle_alpha   89.99681563
_cell_angle_beta   89.99577980
_cell_angle_gamma   90.00422627
_symmetry_Int_Tables_number   1
_chemical_formula_structural   Fe45Co19
_chemical_formula_sum   'Fe90 Co38'
_cell_volume   1487.26032048
_cell_formula_units_Z   2
loop_
 _symmetry_equiv_pos_site_id
 _symmetry_equiv_pos_as_xyz
  1  'x, y, z'
loop_
 _atom_site_type_symbol
 _atom_site_label
 _atom_site_symmetry_multiplicity
 _atom_site_fract_x
 _atom_site_fract_y
 _atom_site_fract_z
 _atom_site_occupancy
  Fe  Fe0  1  0.25280901  -0.00119504  0.24877701  1
  Fe  Fe1  1  0.00531446  0.75234937  0.00030700  1
  Fe  Fe2  1  0.62406778  0.12354996  0.62886817  1
  Fe  Fe3  1  0.75176155  0.75116151  0.24944977  1
  Fe  Fe4  1  0.62318125  0.12658546  0.12114344  1
  Fe  Fe5  1  0.62361045  0.37134152  0.12095880  1
  Fe  Fe6  1  0.49692426  0.25045972  0.75013220  1
  Fe  Fe7  1  0.36985395  0.87278609  0.87615933  1
  Fe  Fe8  1  0.37317444  0.62500089  0.12146172  1
  Fe  Fe9  1  0.12230781  0.37462661  0.62885266  1
  Fe  Fe10  1  0.25216016  0.25129532  0.74766893  1
  Fe  Fe11  1  0.74992999  0.75138105  0.50027005  1
  Fe  Fe12  1  0.49769064  0.74926549  0.49926665  1
  Fe  Fe13  1  0.25084200  0.49675051  0.24685039  1
  Fe  Fe14  1  0.00036021  0.75014019  0.49867661  1
  Fe  Fe15  1  0.25229954  0.75044259  0.49984168  1
  Fe  Fe16  1  0.00381953  -0.00372777  0.00073691  1
  Fe  Fe17  1  0.87601406  0.37624680  0.12142806  1
  Fe  Fe18  1  0.62464500  0.62686480  0.87437907  1
  Fe  Fe19  1  0.37488252  0.62228947  0.62880898  1
  Fe  Fe20  1  0.00101842  0.50104186  0.50099711  1
  Fe  Fe21  1  0.87320566  0.12460523  0.37819966  1
  Fe  Fe22  1  0.87421289  0.87468558  0.62913362  1
  Fe  Fe23  1  0.49598346  0.75048909  0.25177478  1
  Fe  Fe24  1  0.87539853  0.62452931  0.87750548  1
  Fe  Fe25  1  0.62451110  0.62674860  0.12386651  1
  Fe  Fe26  1  0.62668270  0.37332560  0.87657934  1
  Fe  Fe27  1  0.12392183  0.87559045  0.37164972  1
  Fe  Fe28  1  0.12470411  0.12614960  0.87169330  1
  Fe  Fe29  1  0.37278308  0.12461549  0.87470289  1
  Fe  Fe30  1  0.37474791  0.87793004  0.62472606  1
  Fe  Fe31  1  0.62472201  0.62592960  0.62606232  1
  Fe  Fe32  1  0.87393916  0.37584654  0.37657594  1
  Fe  Fe33  1  0.12750236  0.62530048  0.37521499  1
  Fe  Fe34  1  0.62539931  0.87509126  0.63034695  1
  Fe  Fe35  1  0.49746760  0.75037757  -0.00295481  1
  Fe  Fe36  1  0.74729721  0.25062734  0.49968170  1
  Fe  Fe37  1  0.87777156  0.87637019  0.37204734  1
  Fe  Fe38  1  0.87574117  0.87460284  0.87309864  1
  Fe  Fe39  1  0.75292354  0.24827412  0.75153467  1
  Fe  Fe40  1  0.62363591  0.37625163  0.62534567  1
  Fe  Fe41  1  0.74984960  0.75187157  -0.00003351  1
  Fe  Fe42  1  0.12485968  0.12643331  0.12510575  1
  Fe  Fe43  1  0.74881068  0.25022653  0.25053420  1
  Fe  Fe44  1  0.62245406  0.87512383  0.12440483  1
  Fe  Fe45  1  0.24991026  0.00036104  0.74772726  1
  Fe  Fe46  1  0.74966486  0.50237297  0.75085972  1
  Fe  Fe47  1  0.50091479  0.00045033  0.50053659  1
  Fe  Fe48  1  0.25098942  0.24932170  0.50321360  1
  Fe  Fe49  1  0.87557391  0.37627185  0.62620403  1
  Fe  Fe50  1  -0.00136366  0.24831906  0.25074837  1
  Fe  Fe51  1  0.87281656  0.62378091  0.37619986  1
  Fe  Fe52  1  0.00086129  0.24825275  0.50248180  1
  Fe  Fe53  1  0.24936787  0.25583812  0.00105503  1
  Fe  Fe54  1  0.49672064  0.75084764  0.75230060  1
  Fe  Fe55  1  0.37439705  0.12212348  0.37789918  1
  Fe  Fe56  1  0.87533018  0.62564013  0.62480689  1
  Fe  Fe57  1  0.00169095  0.25227865  -0.00174832  1
  Fe  Fe58  1  0.75020670  0.00057732  0.24804901  1
  Fe  Fe59  1  0.50101874  0.24767045  0.25281006  1
  Fe  Fe60  1  0.12655716  0.62507435  0.12515366  1
  Fe  Fe61  1  0.87849080  0.12235379  0.87336023  1
  Fe  Fe62  1  0.24682021  -0.00335800  0.00179954  1
  Fe  Fe63  1  0.49983259  0.50112796  0.49986126  1
  Fe  Fe64  1  0.62634979  0.62428715  0.37582971  1
  Fe  Fe65  1  0.49958887  -0.00164185  -0.00344435  1
  Fe  Fe66  1  0.62245753  0.87606083  0.37290947  1
  Fe  Fe67  1  0.74911456  -0.00161515  0.50215810  1
  Fe  Fe68  1  0.50051098  0.24895296  0.49936168  1
  Fe  Fe69  1  0.37299736  0.37983305  0.87331128  1
  Fe  Fe70  1  0.13234351  0.62286792  0.87477556  1
  Fe  Fe71  1  0.49912979  0.49990504  -0.00194333  1
  Fe  Fe72  1  0.24966288  0.49924524  0.50338489  1
  Fe  Fe73  1  0.87561490  0.12426497  0.12260444  1
  Fe  Fe74  1  0.37550681  0.37645155  0.37590857  1
  Fe  Fe75  1  0.12608287  0.12437460  0.37519262  1
  Fe  Fe76  1  0.12522601  0.37439966  0.37421627  1
  Fe  Fe77  1  0.00307773  0.74746207  0.75135216  1
  Fe  Fe78  1  0.25356600  0.75260332  0.24988081  1
  Fe  Fe79  1  0.00232020  0.00163959  0.50313741  1
  Fe  Fe80  1  0.74959375  -0.00162616  -0.00206232  1
  Fe  Fe81  1  0.12560420  0.87322237  0.62690501  1
  Fe  Fe82  1  0.87569189  0.62480075  0.12172874  1
  Fe  Fe83  1  0.37605200  0.12564315  0.12196127  1
  Fe  Fe84  1  0.74851738  0.49855444  0.24770316  1
  Fe  Fe85  1  0.50006655  0.50054171  0.24987948  1
  Fe  Fe86  1  0.25178864  0.25115086  0.24862947  1
  Fe  Fe87  1  0.62345778  0.12588477  0.87448406  1
  Fe  Fe88  1  0.87719298  0.37864472  0.87609442  1
  Fe  Fe89  1  -0.00003544  0.50118643  0.24974615  1
  Co  Co90  1  0.74983887  0.00199614  0.75266990  1
  Co  Co91  1  0.75382862  0.24808906  -0.00253603  1
  Co  Co92  1  0.49733069  -0.00195396  0.75433586  1
  Co  Co93  1  0.00085979  0.50391177  0.75059547  1
  Co  Co94  1  0.37603526  0.87871609  0.37708116  1
  Co  Co95  1  0.12118418  0.37316753  0.12724369  1
  Co  Co96  1  0.24656018  0.75312065  0.00225205  1
  Co  Co97  1  0.36997680  0.62337359  0.87565554  1
  Co  Co98  1  0.62687734  0.87275178  0.87325899  1
  Co  Co99  1  0.49569733  0.25071798  -0.00421117  1
  Co  Co100  1  0.62384919  0.37812096  0.37592261  1
  Co  Co101  1  0.00124969  0.00011199  0.74672069  1
  Co  Co102  1  -0.00140271  0.74519899  0.25009918  1
  Co  Co103  1  0.38024266  0.37347608  0.12601189  1
  Co  Co104  1  -0.00083494  0.00480770  0.24948495  1
  Co  Co105  1  0.37304566  0.62223164  0.37500128  1
  Co  Co106  1  0.74958037  0.50064796  0.50252537  1
  Co  Co107  1  0.75042082  0.74692707  0.75080564  1
  Co  Co108  1  0.37789699  0.37642094  0.62440276  1
  Co  Co109  1  0.87294180  0.12470301  0.62411364  1
  Co  Co110  1  0.37678865  0.87460531  0.12197459  1
  Co  Co111  1  0.12477385  0.37473458  0.87086361  1
  Co  Co112  1  0.25142480  0.74956091  0.74714021  1
  Co  Co113  1  0.12505995  0.62633531  0.62346886  1
  Co  Co114  1  0.12596907  0.12743905  0.62872187  1
  Co  Co115  1  0.12713244  0.87580291  0.87024902  1
  Co  Co116  1  -0.00310850  0.24933723  0.74989185  1
  Co  Co117  1  0.00557610  0.50035559  -0.00076322  1
  Co  Co118  1  0.87756285  0.87437686  0.12489317  1
  Co  Co119  1  0.24646955  -0.00013268  0.50164275  1
  Co  Co120  1  0.49802143  0.00223713  0.24795210  1
  Co  Co121  1  0.62646777  0.12178923  0.37535223  1
  Co  Co122  1  0.12262036  0.87438890  0.13107763  1
  Co  Co123  1  0.37657269  0.12269249  0.62485000  1
  Co  Co124  1  0.74651629  0.50097675  -0.00008527  1
  Co  Co125  1  0.24855885  0.49894516  0.74609618  1
  Co  Co126  1  0.24954831  0.49432044  0.00343752  1
  Co  Co127  1  0.50239487  0.49964717  0.75294974  1
