# generated using pymatgen
data_Fe45Co19
_symmetry_space_group_name_H-M   'P 1'
_cell_length_a   11.41488521
_cell_length_b   11.41527263
_cell_length_c   11.41513054
_cell_angle_alpha   89.99315630
_cell_angle_beta   89.99143854
_cell_angle_gamma   89.99804906
_symmetry_Int_Tables_number   1
_chemical_formula_structural   Fe45Co19
_chemical_formula_sum   'Fe90 Co38'
_cell_volume   1487.43744747
_cell_formula_units_Z   2
loop_
 _symmetry_equiv_pos_site_id
 _symmetry_equiv_pos_as_xyz
  1  'x, y, z'
loop_
 _atom_site_type_symbol
 _atom_site_label
 _atom_site_symmetry_multiplicity
 _atom_site_fract_x
 _atom_site_fract_y
 _atom_site_fract_z
 _atom_site_occupancy
  Fe  Fe0  1  0.74984052  0.25024143  0.75157819  1
  Fe  Fe1  1  0.49892121  -0.00286650  0.74981897  1
  Fe  Fe2  1  0.74985498  0.49932564  0.74839282  1
  Fe  Fe3  1  0.62159469  0.37476274  0.12618876  1
  Fe  Fe4  1  0.87501172  0.62546044  0.37405687  1
  Fe  Fe5  1  0.00100466  0.49989200  0.24898768  1
  Fe  Fe6  1  0.49948981  -0.00072189  0.50266526  1
  Fe  Fe7  1  0.00125669  0.24709540  0.49782832  1
  Fe  Fe8  1  0.62944906  0.87673619  0.87818160  1
  Fe  Fe9  1  0.49846799  0.50272905  0.00077480  1
  Fe  Fe10  1  0.37362571  0.62658339  0.37499256  1
  Fe  Fe11  1  0.24823834  0.75271646  0.75162039  1
  Fe  Fe12  1  0.13082713  0.37110449  0.62179481  1
  Fe  Fe13  1  0.00153710  0.75176403  0.49860537  1
  Fe  Fe14  1  0.74870511  0.50196764  0.24848021  1
  Fe  Fe15  1  0.62039770  0.63127320  0.12614995  1
  Fe  Fe16  1  0.74991090  -0.00017639  0.50024646  1
  Fe  Fe17  1  0.37285524  0.12716397  0.62716904  1
  Fe  Fe18  1  0.62309489  0.12469391  0.12750205  1
  Fe  Fe19  1  0.87716058  0.62787891  0.12550884  1
  Fe  Fe20  1  0.37133890  0.87603771  0.87887867  1
  Fe  Fe21  1  0.49849288  -0.00513498  0.24638370  1
  Fe  Fe22  1  0.75339729  0.75114541  0.75333090  1
  Fe  Fe23  1  0.74925528  0.74978354  0.49797901  1
  Fe  Fe24  1  0.49804300  0.25066563  0.75180740  1
  Fe  Fe25  1  0.49744985  0.50460671  0.50537036  1
  Fe  Fe26  1  0.87499953  0.12058706  0.37149921  1
  Fe  Fe27  1  0.37349647  0.37896041  0.87422997  1
  Fe  Fe28  1  0.62308866  0.87641438  0.37496534  1
  Fe  Fe29  1  0.87512178  0.37614562  0.37499311  1
  Fe  Fe30  1  0.12535027  0.87912952  0.87683573  1
  Fe  Fe31  1  0.74867066  0.75342611  0.24861489  1
  Fe  Fe32  1  0.25194544  0.24846976  -0.00051692  1
  Fe  Fe33  1  0.12536731  0.37239586  0.12478496  1
  Fe  Fe34  1  0.62097467  0.37966933  0.37384802  1
  Fe  Fe35  1  0.49895485  -0.00114146  0.00161283  1
  Fe  Fe36  1  0.87604512  0.37380457  0.62413129  1
  Fe  Fe37  1  0.74922142  0.50234848  0.00313741  1
  Fe  Fe38  1  0.37390440  0.12204158  0.87497492  1
  Fe  Fe39  1  0.49934682  0.74880712  0.75412685  1
  Fe  Fe40  1  0.49932773  0.24824312  0.49788336  1
  Fe  Fe41  1  0.12656551  0.62477584  0.37349701  1
  Fe  Fe42  1  0.36889259  0.62289455  0.87534300  1
  Fe  Fe43  1  0.25141876  0.75408824  0.25041801  1
  Fe  Fe44  1  0.50032299  0.24901765  -0.00151206  1
  Fe  Fe45  1  0.00172376  0.25011375  0.75235770  1
  Fe  Fe46  1  0.87481059  0.62550159  0.62501130  1
  Fe  Fe47  1  0.12861546  0.12076933  0.87653722  1
  Fe  Fe48  1  0.12812736  0.37819101  0.87719107  1
  Fe  Fe49  1  0.62435589  0.87185449  0.62591349  1
  Fe  Fe50  1  0.25253785  -0.00219174  0.24252528  1
  Fe  Fe51  1  0.62175111  0.37500131  0.62627205  1
  Fe  Fe52  1  0.24894967  -0.00111877  0.50369711  1
  Fe  Fe53  1  0.25172232  0.50098870  0.24648890  1
  Fe  Fe54  1  0.87189738  0.11985640  0.87544076  1
  Fe  Fe55  1  0.87653683  0.87521603  0.62521220  1
  Fe  Fe56  1  0.62369280  0.37706580  0.87468183  1
  Fe  Fe57  1  0.12535385  0.87858103  0.37644377  1
  Fe  Fe58  1  0.87529097  0.37333767  0.12455122  1
  Fe  Fe59  1  0.00217699  0.50066987  0.49962448  1
  Fe  Fe60  1  0.37631843  0.12082170  0.37311421  1
  Fe  Fe61  1  0.37735852  0.37228779  0.12521851  1
  Fe  Fe62  1  0.00397185  0.50018786  0.74861041  1
  Fe  Fe63  1  -0.00040458  0.74968299  0.75365017  1
  Fe  Fe64  1  0.62470511  0.12501958  0.62621928  1
  Fe  Fe65  1  0.87577082  0.37778985  0.87675951  1
  Fe  Fe66  1  0.37546165  0.63245303  0.12316429  1
  Fe  Fe67  1  0.74772043  0.24891065  0.49711413  1
  Fe  Fe68  1  0.25214173  0.24823157  0.25073654  1
  Fe  Fe69  1  0.87740403  0.87841596  0.37338817  1
  Fe  Fe70  1  0.12773399  0.12578418  0.62696276  1
  Fe  Fe71  1  0.62734528  0.62363789  0.87393587  1
  Fe  Fe72  1  -0.00134286  0.24609729  -0.00027556  1
  Fe  Fe73  1  0.12351427  0.87420339  0.12105337  1
  Fe  Fe74  1  0.12747587  0.37596795  0.37547467  1
  Fe  Fe75  1  0.12865576  0.62842801  0.62377177  1
  Fe  Fe76  1  0.37598585  0.37624544  0.37556974  1
  Fe  Fe77  1  0.00138864  0.75219167  0.25124181  1
  Fe  Fe78  1  0.00064236  0.24851557  0.25012229  1
  Fe  Fe79  1  0.00009644  -0.00090532  0.74875810  1
  Fe  Fe80  1  0.87443929  0.12509217  0.62539304  1
  Fe  Fe81  1  -0.00044430  0.74784533  -0.00442895  1
  Fe  Fe82  1  0.00339919  0.50329339  0.00220431  1
  Fe  Fe83  1  0.74954704  0.24776880  0.00030709  1
  Fe  Fe84  1  0.74676896  0.24986900  0.25206106  1
  Fe  Fe85  1  0.62613062  0.12131394  0.87432051  1
  Fe  Fe86  1  0.74814403  0.50218954  0.50071700  1
  Fe  Fe87  1  0.12551200  0.12116607  0.37259590  1
  Fe  Fe88  1  0.37393848  0.87121098  0.62372783  1
  Fe  Fe89  1  0.49997616  0.74824345  0.49718308  1
  Co  Co90  1  0.37220282  0.63191884  0.62622235  1
  Co  Co91  1  0.12454180  0.87305895  0.62574832  1
  Co  Co92  1  0.37763111  0.12704702  0.12514141  1
  Co  Co93  1  0.62261113  0.11975704  0.37323653  1
  Co  Co94  1  0.25218388  0.50184438  0.50063855  1
  Co  Co95  1  0.25180429  -0.00254246  0.74782148  1
  Co  Co96  1  0.00122703  0.00065492  0.50234818  1
  Co  Co97  1  -0.00076392  0.00323230  0.00271986  1
  Co  Co98  1  0.25040865  0.25045294  0.75482208  1
  Co  Co99  1  0.62437457  0.62450126  0.37313947  1
  Co  Co100  1  0.87448574  0.87976514  0.87747018  1
  Co  Co101  1  0.37348864  0.37078196  0.62415877  1
  Co  Co102  1  0.62576268  0.62904220  0.62752219  1
  Co  Co103  1  0.74960030  -0.00115721  0.00735567  1
  Co  Co104  1  0.49689917  0.50274152  0.74812011  1
  Co  Co105  1  0.25268965  -0.00007704  0.00527969  1
  Co  Co106  1  0.49669788  0.50341853  0.24718449  1
  Co  Co107  1  0.49738364  0.75340766  0.25556195  1
  Co  Co108  1  0.74736265  -0.00550968  0.24625525  1
  Co  Co109  1  0.37394834  0.87899714  0.37772325  1
  Co  Co110  1  0.12504660  0.62864310  0.12766757  1
  Co  Co111  1  0.00223572  -0.00062338  0.24506094  1
  Co  Co112  1  0.12656235  0.12749732  0.12391855  1
  Co  Co113  1  0.87365376  0.12540485  0.12946176  1
  Co  Co114  1  0.25105735  0.24621045  0.49522843  1
  Co  Co115  1  0.87882099  0.87330747  0.12308598  1
  Co  Co116  1  0.24583133  0.75008497  -0.00070339  1
  Co  Co117  1  0.12930830  0.62213885  0.87401568  1
  Co  Co118  1  0.24860884  0.75210217  0.49677987  1
  Co  Co119  1  0.87494916  0.62039436  0.87463935  1
  Co  Co120  1  0.61931173  0.86932965  0.12183672  1
  Co  Co121  1  0.37816667  0.86865461  0.11974988  1
  Co  Co122  1  0.74908369  -0.00173406  0.74664890  1
  Co  Co123  1  0.75249395  0.74917869  0.00002929  1
  Co  Co124  1  0.50032049  0.74837413  -0.00792697  1
  Co  Co125  1  0.25027351  0.49888138  0.74451514  1
  Co  Co126  1  0.50065184  0.24919445  0.25304188  1
  Co  Co127  1  0.24994959  0.50102353  0.00670148  1
