# generated using pymatgen
data_Fe45Co19
_symmetry_space_group_name_H-M   'P 1'
_cell_length_a   11.41396133
_cell_length_b   11.41634532
_cell_length_c   11.41457500
_cell_angle_alpha   90.00255748
_cell_angle_beta   89.99420659
_cell_angle_gamma   90.00400668
_symmetry_Int_Tables_number   1
_chemical_formula_structural   Fe45Co19
_chemical_formula_sum   'Fe90 Co38'
_cell_volume   1487.38444861
_cell_formula_units_Z   2
loop_
 _symmetry_equiv_pos_site_id
 _symmetry_equiv_pos_as_xyz
  1  'x, y, z'
loop_
 _atom_site_type_symbol
 _atom_site_label
 _atom_site_symmetry_multiplicity
 _atom_site_fract_x
 _atom_site_fract_y
 _atom_site_fract_z
 _atom_site_occupancy
  Fe  Fe0  1  0.87660524  0.87556581  0.87476115  1
  Fe  Fe1  1  -0.00180057  0.25169946  0.75136917  1
  Fe  Fe2  1  0.37591579  0.87513633  0.37665776  1
  Fe  Fe3  1  0.12607677  0.37731069  0.62647332  1
  Fe  Fe4  1  0.25083542  0.25114441  0.75146063  1
  Fe  Fe5  1  0.25122970  0.00055459  0.25243806  1
  Fe  Fe6  1  0.12628050  0.62569562  0.12531754  1
  Fe  Fe7  1  0.75042947  0.25257915  0.00338548  1
  Fe  Fe8  1  0.12693264  0.87581083  0.62521778  1
  Fe  Fe9  1  0.50117060  0.74716167  0.50177674  1
  Fe  Fe10  1  0.00061228  0.74799029  0.50065389  1
  Fe  Fe11  1  0.62948596  0.12885058  0.37269874  1
  Fe  Fe12  1  0.00026964  0.00036436  0.74985089  1
  Fe  Fe13  1  0.37408462  0.37601032  0.62243717  1
  Fe  Fe14  1  0.50253925  -0.00102543  0.24968879  1
  Fe  Fe15  1  0.25193633  -0.00079694  -0.00395213  1
  Fe  Fe16  1  0.62508185  0.12798868  0.62551830  1
  Fe  Fe17  1  0.62434882  0.37451038  0.87571042  1
  Fe  Fe18  1  0.87369233  0.87323128  0.62605660  1
  Fe  Fe19  1  0.37372974  0.12492071  0.12515328  1
  Fe  Fe20  1  0.87459642  0.62435613  0.87464830  1
  Fe  Fe21  1  0.87370470  0.37585335  0.62464558  1
  Fe  Fe22  1  0.87389388  0.12462274  0.87670419  1
  Fe  Fe23  1  0.25247812  -0.00185769  0.75228537  1
  Fe  Fe24  1  0.75111572  0.50044443  0.75031577  1
  Fe  Fe25  1  0.50094829  0.00265510  0.49935283  1
  Fe  Fe26  1  -0.00303680  0.50104696  0.25231169  1
  Fe  Fe27  1  0.37542182  0.12689171  0.62345736  1
  Fe  Fe28  1  0.37621565  0.62390847  0.12380304  1
  Fe  Fe29  1  0.49963939  0.24807188  0.00021255  1
  Fe  Fe30  1  0.49999761  0.25241684  0.74961964  1
  Fe  Fe31  1  0.37496712  0.37514463  0.12269246  1
  Fe  Fe32  1  0.12698739  0.12481557  0.62462535  1
  Fe  Fe33  1  0.62600986  0.37530106  0.62482355  1
  Fe  Fe34  1  0.50181145  0.49955121  0.49805430  1
  Fe  Fe35  1  0.37420181  0.62144563  0.62322916  1
  Fe  Fe36  1  0.62412684  0.62564871  0.87319621  1
  Fe  Fe37  1  0.49734797  0.49969038  0.75230096  1
  Fe  Fe38  1  0.75116915  0.50303905  0.49838119  1
  Fe  Fe39  1  0.74909210  -0.00015667  0.50057401  1
  Fe  Fe40  1  0.12607881  0.62136512  0.62879418  1
  Fe  Fe41  1  0.87476741  0.62291971  0.12466570  1
  Fe  Fe42  1  0.49881962  0.00064622  0.75066385  1
  Fe  Fe43  1  0.74910495  0.75019411  -0.00024104  1
  Fe  Fe44  1  0.00520303  0.50066826  -0.00321969  1
  Fe  Fe45  1  -0.00318324  0.00064130  0.25007450  1
  Fe  Fe46  1  0.00278884  0.75054264  -0.00034719  1
  Fe  Fe47  1  0.62475021  0.87326610  0.37458911  1
  Fe  Fe48  1  0.37652181  0.87515989  0.62396128  1
  Fe  Fe49  1  -0.00275820  0.24970540  0.49973196  1
  Fe  Fe50  1  0.12369573  0.37400690  0.37362838  1
  Fe  Fe51  1  0.74852894  -0.00111218  0.75015094  1
  Fe  Fe52  1  0.74777063  0.74759758  0.50494861  1
  Fe  Fe53  1  0.49753551  0.24929209  0.25138511  1
  Fe  Fe54  1  -0.00731458  0.24797274  0.24869524  1
  Fe  Fe55  1  0.62952441  0.37172980  0.37198449  1
  Fe  Fe56  1  0.50198038  0.50026218  0.24869210  1
  Fe  Fe57  1  -0.00053708  0.75080790  0.24897804  1
  Fe  Fe58  1  0.37286241  0.37441981  0.87953007  1
  Fe  Fe59  1  -0.00173474  0.50263484  0.49925456  1
  Fe  Fe60  1  0.25007471  0.74778237  0.49864516  1
  Fe  Fe61  1  0.50150792  0.74940142  0.00219178  1
  Fe  Fe62  1  0.74679494  -0.00187773  -0.00048306  1
  Fe  Fe63  1  0.74435420  0.49951851  0.00485278  1
  Fe  Fe64  1  0.12551236  0.12511354  0.87501924  1
  Fe  Fe65  1  0.87306513  0.12576268  0.62579926  1
  Fe  Fe66  1  0.62791029  0.12584060  0.12726151  1
  Fe  Fe67  1  0.25145972  0.24967609  0.49646583  1
  Fe  Fe68  1  0.37702992  0.87598954  0.12272414  1
  Fe  Fe69  1  -0.00029901  0.24895294  0.00083974  1
  Fe  Fe70  1  0.12494119  0.37291402  0.12591987  1
  Fe  Fe71  1  0.12487623  0.12489991  0.37483640  1
  Fe  Fe72  1  0.37448043  0.37605783  0.37496964  1
  Fe  Fe73  1  0.12577255  0.87698096  0.12407657  1
  Fe  Fe74  1  0.87407198  0.87288176  0.37576498  1
  Fe  Fe75  1  0.25308344  0.74973483  0.24974740  1
  Fe  Fe76  1  0.12579738  0.87565980  0.37543504  1
  Fe  Fe77  1  0.25046398  0.49974394  0.24955897  1
  Fe  Fe78  1  0.62075981  0.87337668  0.87341613  1
  Fe  Fe79  1  0.87434924  0.37586890  0.87754535  1
  Fe  Fe80  1  0.62460361  0.12675737  0.87429107  1
  Fe  Fe81  1  -0.00011283  0.74879476  0.75098372  1
  Fe  Fe82  1  0.74916774  0.75063385  0.24662403  1
  Fe  Fe83  1  0.87470076  0.87769332  0.12339075  1
  Fe  Fe84  1  0.25215623  0.75127407  0.75279370  1
  Fe  Fe85  1  0.62530916  0.62620124  0.37083952  1
  Fe  Fe86  1  0.12574517  0.62537348  0.37359969  1
  Fe  Fe87  1  -0.00069573  -0.00035479  0.50041523  1
  Fe  Fe88  1  0.12623051  0.12487829  0.12523031  1
  Fe  Fe89  1  0.37311568  0.62562121  0.87904352  1
  Co  Co90  1  0.75756708  0.25375691  0.24519042  1
  Co  Co91  1  0.50284420  0.50016857  -0.00037802  1
  Co  Co92  1  0.87871324  0.38060005  0.12221274  1
  Co  Co93  1  0.62114214  0.37138480  0.12675589  1
  Co  Co94  1  0.12640826  0.37349724  0.87432457  1
  Co  Co95  1  0.37603601  0.12673979  0.87386004  1
  Co  Co96  1  0.24798861  0.75184943  0.00065589  1
  Co  Co97  1  0.37662202  0.62374424  0.37446308  1
  Co  Co98  1  0.75023677  0.25127962  0.75069836  1
  Co  Co99  1  0.12686432  0.62558664  0.87243645  1
  Co  Co100  1  0.62397152  0.62069745  0.62759626  1
  Co  Co101  1  0.25137362  0.25056865  0.25165324  1
  Co  Co102  1  0.62244984  0.87579249  0.62650972  1
  Co  Co103  1  0.37582480  0.12371139  0.37487907  1
  Co  Co104  1  0.49893315  0.74626916  0.74748603  1
  Co  Co105  1  0.50110831  0.00332100  0.00106556  1
  Co  Co106  1  0.87172630  0.12018370  0.12223478  1
  Co  Co107  1  0.74894573  0.49865828  0.24600789  1
  Co  Co108  1  0.75127877  0.24958722  0.50145636  1
  Co  Co109  1  0.38052389  0.87294773  0.87666136  1
  Co  Co110  1  0.74849261  0.75064128  0.74941485  1
  Co  Co111  1  0.62310502  0.62721830  0.12676795  1
  Co  Co112  1  0.24635916  0.49947366  0.00150980  1
  Co  Co113  1  0.87314846  0.37630970  0.37589640  1
  Co  Co114  1  0.87240050  0.12434325  0.37576032  1
  Co  Co115  1  0.12336968  0.87547327  0.87479521  1
  Co  Co116  1  0.87291657  0.62749910  0.37283948  1
  Co  Co117  1  0.50041776  0.25104957  0.49857497  1
  Co  Co118  1  0.00157424  0.00059154  0.00024718  1
  Co  Co119  1  0.62421341  0.87458614  0.12347715  1
  Co  Co120  1  0.49821778  0.75198140  0.24897089  1
  Co  Co121  1  0.87526001  0.62532438  0.62736304  1
  Co  Co122  1  0.25076908  0.00119867  0.49939166  1
  Co  Co123  1  0.24829172  0.49962787  0.49673534  1
  Co  Co124  1  0.24914359  0.24876124  0.00051957  1
  Co  Co125  1  -0.00158866  0.49791418  0.75204486  1
  Co  Co126  1  0.25288387  0.49881451  0.75350862  1
  Co  Co127  1  0.74969022  -0.00261646  0.25078747  1
