# generated using pymatgen
data_Fe45Co19
_symmetry_space_group_name_H-M   'P 1'
_cell_length_a   11.41557373
_cell_length_b   11.41457507
_cell_length_c   11.41501236
_cell_angle_alpha   90.00079330
_cell_angle_beta   90.00208908
_cell_angle_gamma   90.00005705
_symmetry_Int_Tables_number   1
_chemical_formula_structural   Fe45Co19
_chemical_formula_sum   'Fe90 Co38'
_cell_volume   1487.42089313
_cell_formula_units_Z   2
loop_
 _symmetry_equiv_pos_site_id
 _symmetry_equiv_pos_as_xyz
  1  'x, y, z'
loop_
 _atom_site_type_symbol
 _atom_site_label
 _atom_site_symmetry_multiplicity
 _atom_site_fract_x
 _atom_site_fract_y
 _atom_site_fract_z
 _atom_site_occupancy
  Fe  Fe0  1  0.37538650  0.87670485  0.87549101  1
  Fe  Fe1  1  0.62869385  0.37285900  0.12697153  1
  Fe  Fe2  1  0.87459854  0.12116930  0.37649268  1
  Fe  Fe3  1  0.87707137  0.12080722  0.12705936  1
  Fe  Fe4  1  0.00461306  -0.00531624  0.25472536  1
  Fe  Fe5  1  0.37366241  0.37431379  0.87559845  1
  Fe  Fe6  1  0.12089109  0.12236475  0.62552360  1
  Fe  Fe7  1  0.87614612  0.62370640  0.37386117  1
  Fe  Fe8  1  -0.00105712  0.24952702  0.50099818  1
  Fe  Fe9  1  0.50278758  0.00084386  0.25207281  1
  Fe  Fe10  1  0.12507242  0.62675298  0.37533341  1
  Fe  Fe11  1  0.12322782  0.62792294  0.87610753  1
  Fe  Fe12  1  0.37445025  0.87801397  0.12392512  1
  Fe  Fe13  1  0.87471885  0.87549244  0.87666895  1
  Fe  Fe14  1  0.75065071  -0.00197555  0.74923249  1
  Fe  Fe15  1  0.87841689  0.12101872  0.62592294  1
  Fe  Fe16  1  0.24915401  0.50081109  0.50030507  1
  Fe  Fe17  1  0.62287389  0.87141165  0.62562265  1
  Fe  Fe18  1  0.37383519  0.12193698  0.62563264  1
  Fe  Fe19  1  0.87198095  0.37998686  0.12449350  1
  Fe  Fe20  1  0.49998243  0.24888411  0.50005940  1
  Fe  Fe21  1  0.25359140  0.74956621  0.50271417  1
  Fe  Fe22  1  0.25152060  0.24747170  0.25130407  1
  Fe  Fe23  1  0.12194651  0.87122101  0.88041378  1
  Fe  Fe24  1  0.62633398  0.36992317  0.37261058  1
  Fe  Fe25  1  0.62380458  0.62861958  0.37518365  1
  Fe  Fe26  1  0.50262010  -0.00023557  0.49889794  1
  Fe  Fe27  1  0.12580853  0.87602384  0.62213505  1
  Fe  Fe28  1  0.12314663  0.62576728  0.62573762  1
  Fe  Fe29  1  0.87610731  0.37925191  0.37485485  1
  Fe  Fe30  1  0.62735862  0.37212820  0.87401802  1
  Fe  Fe31  1  0.50115877  0.75292746  0.25009482  1
  Fe  Fe32  1  0.62418754  0.62838564  0.62618494  1
  Fe  Fe33  1  0.74660049  -0.00066077  0.25312681  1
  Fe  Fe34  1  0.25290093  0.75031141  0.75095694  1
  Fe  Fe35  1  0.37416684  0.37472822  0.12381340  1
  Fe  Fe36  1  0.50196257  0.49926696  0.49995326  1
  Fe  Fe37  1  0.37773766  0.62536191  0.62610056  1
  Fe  Fe38  1  0.75417547  0.24669674  0.00116771  1
  Fe  Fe39  1  0.24706585  0.00081814  -0.00041986  1
  Fe  Fe40  1  0.11740020  0.12741404  0.87480647  1
  Fe  Fe41  1  0.37496951  0.37470343  0.37426500  1
  Fe  Fe42  1  0.74780446  0.49961022  0.49999034  1
  Fe  Fe43  1  -0.00140811  0.49670427  0.75151288  1
  Fe  Fe44  1  0.50141256  -0.00085520  0.75144167  1
  Fe  Fe45  1  0.37725242  0.62550803  0.12414740  1
  Fe  Fe46  1  0.50011014  0.24849314  0.00045556  1
  Fe  Fe47  1  -0.00302083  0.75184090  0.75008543  1
  Fe  Fe48  1  0.49843171  0.24864413  0.75068098  1
  Fe  Fe49  1  0.50289347  0.49895706  0.24870605  1
  Fe  Fe50  1  -0.00124451  0.50047544  -0.00174565  1
  Fe  Fe51  1  0.62744420  0.12539554  0.87346163  1
  Fe  Fe52  1  0.25007330  0.50183832  -0.00153422  1
  Fe  Fe53  1  0.75049872  0.00101585  -0.00101405  1
  Fe  Fe54  1  0.37499506  0.62450861  0.37356725  1
  Fe  Fe55  1  0.24867764  0.24831976  0.75143474  1
  Fe  Fe56  1  -0.00131374  0.75143552  0.49847176  1
  Fe  Fe57  1  0.50386089  0.50022164  -0.00020990  1
  Fe  Fe58  1  0.87548821  0.62304739  0.62503619  1
  Fe  Fe59  1  0.75030019  0.75014908  0.00118486  1
  Fe  Fe60  1  0.24690861  -0.00021167  0.75188454  1
  Fe  Fe61  1  0.62599500  0.12626782  0.12810167  1
  Fe  Fe62  1  0.37445554  0.12312418  0.12605543  1
  Fe  Fe63  1  0.24917481  0.75284209  0.24626103  1
  Fe  Fe64  1  0.37224625  0.87803804  0.37653721  1
  Fe  Fe65  1  0.62838992  0.62911003  0.87188701  1
  Fe  Fe66  1  0.24865180  0.24727226  -0.00150921  1
  Fe  Fe67  1  0.87513105  0.87683325  0.12627312  1
  Fe  Fe68  1  0.50089201  0.50016177  0.75074869  1
  Fe  Fe69  1  0.37492446  0.37441034  0.62537118  1
  Fe  Fe70  1  0.12516182  0.37435865  0.12379777  1
  Fe  Fe71  1  0.87181907  0.62140148  0.12581454  1
  Fe  Fe72  1  -0.00320934  0.25171988  0.24832322  1
  Fe  Fe73  1  0.75165464  0.49744424  0.74965806  1
  Fe  Fe74  1  0.75444854  0.25108581  0.74791148  1
  Fe  Fe75  1  0.12248123  0.12302459  0.12684988  1
  Fe  Fe76  1  0.24808607  0.50092612  0.24910373  1
  Fe  Fe77  1  0.12497020  0.62795231  0.12187182  1
  Fe  Fe78  1  0.74854131  0.75063249  0.24887634  1
  Fe  Fe79  1  0.25020458  0.24636140  0.49888775  1
  Fe  Fe80  1  0.87669404  0.87806573  0.62150627  1
  Fe  Fe81  1  0.24990836  0.50077241  0.75149863  1
  Fe  Fe82  1  0.12311688  0.37474553  0.37469632  1
  Fe  Fe83  1  0.50317697  0.00122084  -0.00162885  1
  Fe  Fe84  1  0.12422369  0.37504051  0.62455085  1
  Fe  Fe85  1  0.75112193  0.75144662  0.50066128  1
  Fe  Fe86  1  0.75162829  0.24940647  0.50136228  1
  Fe  Fe87  1  0.62611296  0.12599797  0.62519534  1
  Fe  Fe88  1  0.00089260  0.75146860  0.24894940  1
  Fe  Fe89  1  0.50162529  0.75112430  -0.00194063  1
  Co  Co90  1  0.62679909  0.87307711  0.37624314  1
  Co  Co91  1  0.12208238  0.12813452  0.37365153  1
  Co  Co92  1  -0.00222619  0.25428502  0.74816372  1
  Co  Co93  1  0.87625895  0.37766641  0.62164563  1
  Co  Co94  1  0.37534165  0.12378856  0.87486327  1
  Co  Co95  1  0.12402400  0.87479227  0.12095022  1
  Co  Co96  1  0.62503793  0.62692016  0.12512794  1
  Co  Co97  1  0.00031255  -0.00499541  0.75193742  1
  Co  Co98  1  -0.00137654  0.00037124  -0.00105129  1
  Co  Co99  1  0.87196454  0.87524942  0.37429826  1
  Co  Co100  1  0.37575531  0.62382522  0.87657320  1
  Co  Co101  1  0.74606515  0.50125677  0.25293194  1
  Co  Co102  1  0.00293991  0.50151776  0.24788392  1
  Co  Co103  1  0.62751744  0.87409158  0.87429194  1
  Co  Co104  1  0.87734482  0.12489880  0.87136055  1
  Co  Co105  1  0.49667598  0.75141751  0.49956826  1
  Co  Co106  1  0.62691331  0.12825049  0.37418234  1
  Co  Co107  1  0.87460678  0.37283530  0.87806148  1
  Co  Co108  1  0.12917174  0.87090169  0.37836196  1
  Co  Co109  1  0.74694539  0.50159642  -0.00318746  1
  Co  Co110  1  0.25383192  0.75044862  -0.00001064  1
  Co  Co111  1  0.00235927  0.50166659  0.49984465  1
  Co  Co112  1  0.75470412  0.75369947  0.74734923  1
  Co  Co113  1  0.37729863  0.12336187  0.37471966  1
  Co  Co114  1  0.00209277  -0.00251434  0.49612011  1
  Co  Co115  1  0.24658254  -0.00006817  0.25119348  1
  Co  Co116  1  0.49647164  0.75110333  0.75207617  1
  Co  Co117  1  0.75607803  0.24889971  0.24969626  1
  Co  Co118  1  -0.00356601  0.24986480  0.00414453  1
  Co  Co119  1  -0.00653298  0.74868361  0.00257352  1
  Co  Co120  1  0.12507324  0.37354217  0.87640683  1
  Co  Co121  1  0.24773742  0.00389635  0.49811601  1
  Co  Co122  1  0.74685817  -0.00048794  0.50159045  1
  Co  Co123  1  0.37425416  0.87906377  0.62572927  1
  Co  Co124  1  0.62560357  0.87631360  0.12451419  1
  Co  Co125  1  0.62439393  0.37340299  0.62582077  1
  Co  Co126  1  0.87358385  0.62535820  0.87297788  1
  Co  Co127  1  0.49761624  0.24960416  0.24803300  1
