# generated using pymatgen
data_Fe45Co19
_symmetry_space_group_name_H-M   'P 1'
_cell_length_a   11.41678620
_cell_length_b   11.41572987
_cell_length_c   11.41516231
_cell_angle_alpha   89.99423373
_cell_angle_beta   89.99332943
_cell_angle_gamma   89.99711208
_symmetry_Int_Tables_number   1
_chemical_formula_structural   Fe45Co19
_chemical_formula_sum   'Fe90 Co38'
_cell_volume   1487.74889621
_cell_formula_units_Z   2
loop_
 _symmetry_equiv_pos_site_id
 _symmetry_equiv_pos_as_xyz
  1  'x, y, z'
loop_
 _atom_site_type_symbol
 _atom_site_label
 _atom_site_symmetry_multiplicity
 _atom_site_fract_x
 _atom_site_fract_y
 _atom_site_fract_z
 _atom_site_occupancy
  Fe  Fe0  1  -0.00117541  0.50120080  0.25060775  1
  Fe  Fe1  1  0.62420725  0.12370134  0.62629344  1
  Fe  Fe2  1  0.24815545  0.25006681  -0.00011180  1
  Fe  Fe3  1  0.62318969  0.87621892  0.62764776  1
  Fe  Fe4  1  0.50194674  -0.00271952  0.24837934  1
  Fe  Fe5  1  0.62623535  0.37699355  0.12690507  1
  Fe  Fe6  1  0.50057137  0.25147465  0.25037901  1
  Fe  Fe7  1  0.00059008  0.24944385  0.50213189  1
  Fe  Fe8  1  0.24887641  -0.00303657  0.24838680  1
  Fe  Fe9  1  0.74824127  0.75172456  0.75331209  1
  Fe  Fe10  1  0.24822319  0.24873637  0.50031329  1
  Fe  Fe11  1  0.12168802  0.62700944  0.86943699  1
  Fe  Fe12  1  0.62650010  0.87439550  0.37647775  1
  Fe  Fe13  1  0.87258565  0.37836375  0.37802576  1
  Fe  Fe14  1  0.37471315  0.62723453  0.62487481  1
  Fe  Fe15  1  0.62582312  0.86981995  0.11929594  1
  Fe  Fe16  1  0.37264097  0.37469308  0.62377793  1
  Fe  Fe17  1  0.75051948  0.74781106  0.24937354  1
  Fe  Fe18  1  0.49892388  0.49827772  0.74805424  1
  Fe  Fe19  1  0.74874492  -0.00118034  0.24904535  1
  Fe  Fe20  1  0.49878261  -0.00114810  0.50134447  1
  Fe  Fe21  1  0.62528987  0.12447476  0.37454813  1
  Fe  Fe22  1  0.87692689  0.62596415  0.12403279  1
  Fe  Fe23  1  0.24927836  0.50432491  0.24699236  1
  Fe  Fe24  1  0.49643786  0.00201829  0.75081038  1
  Fe  Fe25  1  0.37770521  0.62711384  0.37068609  1
  Fe  Fe26  1  0.37436938  0.37423768  0.87487972  1
  Fe  Fe27  1  -0.00075332  0.25023121  0.25149070  1
  Fe  Fe28  1  0.24873684  0.50474103  0.50094947  1
  Fe  Fe29  1  0.49967589  0.75060002  0.50016156  1
  Fe  Fe30  1  0.62603547  0.37514456  0.62472271  1
  Fe  Fe31  1  0.00185743  0.25092273  -0.00104363  1
  Fe  Fe32  1  0.00070197  0.75084633  0.50284475  1
  Fe  Fe33  1  0.24815066  0.50080675  0.74911526  1
  Fe  Fe34  1  0.50247276  0.49963793  0.49768052  1
  Fe  Fe35  1  0.37504587  0.87520753  0.87640560  1
  Fe  Fe36  1  0.87263889  0.87296159  0.12167117  1
  Fe  Fe37  1  0.12305174  0.87001692  0.12667499  1
  Fe  Fe38  1  0.74906791  0.24871939  -0.00139386  1
  Fe  Fe39  1  0.12342103  0.12466349  0.12531539  1
  Fe  Fe40  1  0.37744030  0.86974272  0.12320849  1
  Fe  Fe41  1  0.00052957  -0.00364258  0.75190989  1
  Fe  Fe42  1  -0.00081131  -0.00256099  0.24992819  1
  Fe  Fe43  1  0.13103606  0.86973646  0.62793039  1
  Fe  Fe44  1  -0.00094662  0.75188531  -0.00401039  1
  Fe  Fe45  1  0.75158916  0.00120774  0.75265900  1
  Fe  Fe46  1  0.49993914  0.25109242  0.50025135  1
  Fe  Fe47  1  0.87523433  0.37742396  0.12448745  1
  Fe  Fe48  1  0.12330717  0.62891767  0.37408329  1
  Fe  Fe49  1  0.87499848  0.12439863  0.12323937  1
  Fe  Fe50  1  0.87172447  0.87512331  0.62562792  1
  Fe  Fe51  1  0.75176036  0.25011741  0.24943401  1
  Fe  Fe52  1  0.87245130  0.62385012  0.37845336  1
  Fe  Fe53  1  0.62502220  0.62566552  0.62592788  1
  Fe  Fe54  1  0.25145267  -0.00283569  0.50205703  1
  Fe  Fe55  1  0.00075220  -0.00214277  -0.00273187  1
  Fe  Fe56  1  0.00083421  -0.00371196  0.50282130  1
  Fe  Fe57  1  0.25223921  0.00190053  0.75047052  1
  Fe  Fe58  1  0.74886431  0.50412189  0.00016897  1
  Fe  Fe59  1  0.12391544  0.37737822  0.12497246  1
  Fe  Fe60  1  0.37670606  0.62233142  0.87505325  1
  Fe  Fe61  1  0.12429133  0.37776300  0.37688492  1
  Fe  Fe62  1  0.37613014  0.12492436  0.12542262  1
  Fe  Fe63  1  -0.00035147  0.50268316  0.50841979  1
  Fe  Fe64  1  0.25055910  0.74626258  0.00009854  1
  Fe  Fe65  1  0.50180363  0.50250741  0.00027624  1
  Fe  Fe66  1  0.24889431  0.24772566  0.74963708  1
  Fe  Fe67  1  0.87392442  0.87563582  0.37680919  1
  Fe  Fe68  1  0.37333715  0.87320469  0.37447124  1
  Fe  Fe69  1  0.37523283  0.37773225  0.12518305  1
  Fe  Fe70  1  0.87472716  0.12147855  0.37724713  1
  Fe  Fe71  1  0.62530303  0.37691998  0.87287994  1
  Fe  Fe72  1  0.00139350  0.49979568  -0.00343609  1
  Fe  Fe73  1  0.87682192  0.62600729  0.87008589  1
  Fe  Fe74  1  0.50143793  0.00205971  -0.00102986  1
  Fe  Fe75  1  0.87613140  0.37487555  0.87346793  1
  Fe  Fe76  1  0.00263089  0.25052664  0.74832315  1
  Fe  Fe77  1  0.74808912  0.75024482  0.50185558  1
  Fe  Fe78  1  0.24780730  0.50360651  0.00132179  1
  Fe  Fe79  1  0.75316470  0.50000951  0.74673832  1
  Fe  Fe80  1  0.12462317  0.12143857  0.37655546  1
  Fe  Fe81  1  0.24816981  0.25017697  0.25029460  1
  Fe  Fe82  1  0.50193363  0.24965739  -0.00142367  1
  Fe  Fe83  1  0.75049587  0.24803638  0.75030299  1
  Fe  Fe84  1  0.37492718  0.12323705  0.37442364  1
  Fe  Fe85  1  0.37347369  0.37637686  0.37452795  1
  Fe  Fe86  1  0.49931207  0.74995996  0.75320172  1
  Fe  Fe87  1  0.75126296  0.24792602  0.50195233  1
  Fe  Fe88  1  0.24891638  0.00033148  0.00021788  1
  Fe  Fe89  1  0.74891846  0.00279187  -0.00336228  1
  Co  Co90  1  0.38127781  0.62673847  0.12743140  1
  Co  Co91  1  0.62502286  0.12531883  0.12576009  1
  Co  Co92  1  0.87807960  0.12600870  0.87505612  1
  Co  Co93  1  0.62076079  0.62772079  0.12697202  1
  Co  Co94  1  0.37502077  0.12714998  0.87705582  1
  Co  Co95  1  -0.00453636  0.75072131  0.25241878  1
  Co  Co96  1  0.87453969  0.37268165  0.62455558  1
  Co  Co97  1  0.62951170  0.37412517  0.37587549  1
  Co  Co98  1  0.62340277  0.12513577  0.87278372  1
  Co  Co99  1  0.50250292  0.75411920  0.25214974  1
  Co  Co100  1  0.74826654  0.74423635  -0.00418528  1
  Co  Co101  1  0.12913308  0.87330898  0.87368782  1
  Co  Co102  1  0.12506071  0.87330631  0.37452465  1
  Co  Co103  1  0.12641069  0.63021612  0.62953271  1
  Co  Co104  1  0.11956787  0.62755369  0.12499677  1
  Co  Co105  1  0.74896286  0.50125434  0.50381550  1
  Co  Co106  1  -0.00242302  0.75582236  0.74935157  1
  Co  Co107  1  -0.00045497  0.49817417  0.74545317  1
  Co  Co108  1  0.37468347  0.87186853  0.62640292  1
  Co  Co109  1  0.25568391  0.74778098  0.75401009  1
  Co  Co110  1  0.50286441  0.49726196  0.25296944  1
  Co  Co111  1  0.62507530  0.62140789  0.87033416  1
  Co  Co112  1  0.25142481  0.74890516  0.49795210  1
  Co  Co113  1  0.74863681  -0.00001613  0.50140260  1
  Co  Co114  1  0.62615442  0.62576269  0.37552017  1
  Co  Co115  1  0.87186509  0.87463475  0.87711399  1
  Co  Co116  1  0.87357489  0.62918878  0.62749266  1
  Co  Co117  1  0.62381311  0.87725383  0.87563019  1
  Co  Co118  1  0.12590325  0.37609097  0.87358577  1
  Co  Co119  1  0.74951852  0.50264731  0.24831624  1
  Co  Co120  1  0.87666334  0.12292487  0.62618930  1
  Co  Co121  1  0.37528481  0.12680064  0.62339566  1
  Co  Co122  1  0.50126849  0.74617744  -0.00696129  1
  Co  Co123  1  0.24955088  0.74875804  0.24814698  1
  Co  Co124  1  0.12462711  0.12224185  0.62486564  1
  Co  Co125  1  0.49947820  0.25147100  0.74911943  1
  Co  Co126  1  0.12445347  0.12343505  0.87538787  1
  Co  Co127  1  0.12787513  0.37620261  0.62410595  1
