# generated using pymatgen
data_Fe45Co19
_symmetry_space_group_name_H-M   'P 1'
_cell_length_a   11.41587278
_cell_length_b   11.41534487
_cell_length_c   11.41691661
_cell_angle_alpha   90.00907938
_cell_angle_beta   90.00068093
_cell_angle_gamma   90.00062955
_symmetry_Int_Tables_number   1
_chemical_formula_structural   Fe45Co19
_chemical_formula_sum   'Fe90 Co38'
_cell_volume   1487.80831088
_cell_formula_units_Z   2
loop_
 _symmetry_equiv_pos_site_id
 _symmetry_equiv_pos_as_xyz
  1  'x, y, z'
loop_
 _atom_site_type_symbol
 _atom_site_label
 _atom_site_symmetry_multiplicity
 _atom_site_fract_x
 _atom_site_fract_y
 _atom_site_fract_z
 _atom_site_occupancy
  Fe  Fe0  1  0.87165564  0.37565019  0.37582613  1
  Fe  Fe1  1  0.49997689  0.74946258  -0.00017001  1
  Fe  Fe2  1  0.62776168  0.37434604  0.62502844  1
  Fe  Fe3  1  -0.00150470  0.50057150  0.00033493  1
  Fe  Fe4  1  0.50308622  0.49711344  0.25202491  1
  Fe  Fe5  1  0.12375133  0.62518662  0.62332569  1
  Fe  Fe6  1  0.24919447  0.24826175  0.74901679  1
  Fe  Fe7  1  -0.00409490  0.75162133  0.49879232  1
  Fe  Fe8  1  -0.00051705  0.25211909  0.24931473  1
  Fe  Fe9  1  0.49747710  -0.00045440  0.75080833  1
  Fe  Fe10  1  0.37363014  0.87459320  0.37394745  1
  Fe  Fe11  1  0.49982662  0.49873512  0.74740209  1
  Fe  Fe12  1  0.00170052  0.25298272  0.50270156  1
  Fe  Fe13  1  0.63239914  0.87822236  0.37791634  1
  Fe  Fe14  1  0.74760193  0.50068166  0.24784384  1
  Fe  Fe15  1  0.75198278  0.74197963  -0.00048578  1
  Fe  Fe16  1  0.49908419  0.75010643  0.74975073  1
  Fe  Fe17  1  0.12516204  0.87531460  0.37428625  1
  Fe  Fe18  1  0.24955068  0.50210246  0.74908119  1
  Fe  Fe19  1  0.50212241  0.74984284  0.49896149  1
  Fe  Fe20  1  0.00065913  0.25042363  -0.00101442  1
  Fe  Fe21  1  0.87282220  0.37599787  0.12284614  1
  Fe  Fe22  1  0.12781248  0.87469827  0.12594483  1
  Fe  Fe23  1  0.74973686  0.24918855  0.25030364  1
  Fe  Fe24  1  0.00116549  0.49707423  0.74792908  1
  Fe  Fe25  1  0.75115371  0.25043343  0.50183713  1
  Fe  Fe26  1  -0.00088436  0.49723300  0.50204896  1
  Fe  Fe27  1  0.87869526  0.12679830  0.62693081  1
  Fe  Fe28  1  0.37687422  0.62382543  0.87570112  1
  Fe  Fe29  1  0.37246567  0.87567229  0.87630001  1
  Fe  Fe30  1  0.50053628  0.25091468  -0.00074597  1
  Fe  Fe31  1  -0.00036063  -0.00063499  0.49926526  1
  Fe  Fe32  1  0.62665917  0.62726107  0.62486720  1
  Fe  Fe33  1  0.86976422  0.87524797  0.12594664  1
  Fe  Fe34  1  0.50453322  0.49822621  -0.00087102  1
  Fe  Fe35  1  0.87432024  0.62552952  0.62616714  1
  Fe  Fe36  1  -0.00251782  0.74812196  0.00093312  1
  Fe  Fe37  1  0.12623541  0.12625075  0.12800351  1
  Fe  Fe38  1  0.12705908  0.87482598  0.87644143  1
  Fe  Fe39  1  0.25054605  0.74869250  0.75004597  1
  Fe  Fe40  1  0.50394947  0.75192846  0.25185306  1
  Fe  Fe41  1  0.62519834  0.12570498  0.12505416  1
  Fe  Fe42  1  0.12336353  0.62530811  0.87509917  1
  Fe  Fe43  1  0.37422391  0.37588563  0.12726806  1
  Fe  Fe44  1  0.37322667  0.87536128  0.12708437  1
  Fe  Fe45  1  0.50277848  -0.00059252  0.25044965  1
  Fe  Fe46  1  -0.00301683  0.75192024  0.25012290  1
  Fe  Fe47  1  0.25063680  0.74790408  0.00142743  1
  Fe  Fe48  1  -0.00207137  -0.00012108  0.24944767  1
  Fe  Fe49  1  0.37793063  0.62500362  0.12856868  1
  Fe  Fe50  1  0.25002151  0.25031686  0.00180025  1
  Fe  Fe51  1  0.49932572  -0.00091749  0.49882854  1
  Fe  Fe52  1  0.00080142  0.49716135  0.24925506  1
  Fe  Fe53  1  0.12673033  0.12322697  0.87459341  1
  Fe  Fe54  1  0.12693664  0.87607949  0.62339217  1
  Fe  Fe55  1  0.24662264  0.24650734  0.49874636  1
  Fe  Fe56  1  0.00125541  -0.00096335  0.75095037  1
  Fe  Fe57  1  0.37635119  0.37372429  0.87347692  1
  Fe  Fe58  1  0.37562573  0.62437546  0.62142202  1
  Fe  Fe59  1  0.62924398  0.87447417  0.12388670  1
  Fe  Fe60  1  0.87423661  0.62459450  0.37450594  1
  Fe  Fe61  1  0.12680786  0.37545730  0.37504087  1
  Fe  Fe62  1  0.62332537  0.12742033  0.87223801  1
  Fe  Fe63  1  0.24985631  0.74557802  0.49515573  1
  Fe  Fe64  1  0.37433548  0.12378015  0.12648640  1
  Fe  Fe65  1  0.87325765  0.12517609  0.12320360  1
  Fe  Fe66  1  0.37066804  0.37703979  0.62196878  1
  Fe  Fe67  1  0.37439941  0.12432797  0.37401310  1
  Fe  Fe68  1  0.74815595  0.25134929  -0.00184410  1
  Fe  Fe69  1  0.37332306  0.37869917  0.37780080  1
  Fe  Fe70  1  0.37361575  0.12310103  0.62405001  1
  Fe  Fe71  1  0.87368346  0.37518343  0.87409170  1
  Fe  Fe72  1  0.00007487  0.75067092  0.74990886  1
  Fe  Fe73  1  0.62656592  0.12484527  0.37725703  1
  Fe  Fe74  1  0.74940358  0.50080628  0.75209334  1
  Fe  Fe75  1  0.62641732  0.62360335  0.37797020  1
  Fe  Fe76  1  0.62654111  0.87209586  0.87444810  1
  Fe  Fe77  1  0.62319203  0.12389779  0.62469643  1
  Fe  Fe78  1  0.74937741  -0.00205994  0.74771538  1
  Fe  Fe79  1  -0.00079525  -0.00054626  0.00109303  1
  Fe  Fe80  1  0.37331454  0.87491937  0.62230433  1
  Fe  Fe81  1  0.24986094  0.50062208  0.00173560  1
  Fe  Fe82  1  0.50085728  0.25210303  0.25244867  1
  Fe  Fe83  1  0.12366150  0.62454498  0.12730943  1
  Fe  Fe84  1  0.87361687  0.87329565  0.87488363  1
  Fe  Fe85  1  0.87541240  0.12416993  0.37636058  1
  Fe  Fe86  1  0.87437455  0.12542581  0.87364946  1
  Fe  Fe87  1  0.50011085  0.00051107  -0.00112080  1
  Fe  Fe88  1  0.12543776  0.37557578  0.87493655  1
  Fe  Fe89  1  0.50066259  0.25317566  0.50077793  1
  Co  Co90  1  0.87808457  0.87518173  0.62668304  1
  Co  Co91  1  0.12358779  0.12271731  0.62563108  1
  Co  Co92  1  0.24897751  0.00127981  0.49700936  1
  Co  Co93  1  0.49777085  0.25159720  0.74543483  1
  Co  Co94  1  0.75039670  0.75187533  0.74757005  1
  Co  Co95  1  0.75285088  0.75179127  0.50202674  1
  Co  Co96  1  0.74815636  0.50252890  -0.00099215  1
  Co  Co97  1  0.25089772  0.25171506  0.25125746  1
  Co  Co98  1  0.75014212  0.24850336  0.74874888  1
  Co  Co99  1  0.50328250  0.49800139  0.50258113  1
  Co  Co100  1  0.62411195  0.37356353  0.87241810  1
  Co  Co101  1  0.75342429  0.00083419  0.50516567  1
  Co  Co102  1  0.38130104  0.62272746  0.37403025  1
  Co  Co103  1  0.74899852  0.74693063  0.25138224  1
  Co  Co104  1  0.11797803  0.62505108  0.37380044  1
  Co  Co105  1  0.24724021  0.50580575  0.49661672  1
  Co  Co106  1  0.37507847  0.12717866  0.87531041  1
  Co  Co107  1  0.12841567  0.37545034  0.62407132  1
  Co  Co108  1  0.75153573  0.49999305  0.50151759  1
  Co  Co109  1  0.62606795  0.37312940  0.12539042  1
  Co  Co110  1  0.62188830  0.87571922  0.62401686  1
  Co  Co111  1  0.25166045  -0.00053998  0.75012654  1
  Co  Co112  1  0.87311902  0.37388302  0.62741084  1
  Co  Co113  1  0.62777410  0.37442849  0.37611269  1
  Co  Co114  1  0.24958113  0.00047395  0.25176170  1
  Co  Co115  1  0.74997816  0.00407651  0.24926360  1
  Co  Co116  1  0.87732002  0.62459532  0.87099551  1
  Co  Co117  1  0.00242360  0.25171768  0.75082445  1
  Co  Co118  1  0.12494631  0.37501576  0.12543631  1
  Co  Co119  1  0.25008211  0.74625480  0.25271761  1
  Co  Co120  1  0.62192632  0.62525881  0.12505612  1
  Co  Co121  1  0.62288299  0.62616869  0.87309784  1
  Co  Co122  1  0.87107554  0.87730863  0.37280144  1
  Co  Co123  1  0.24913631  0.50290010  0.25171452  1
  Co  Co124  1  0.12171336  0.12576931  0.37270874  1
  Co  Co125  1  0.87675929  0.62282544  0.12864652  1
  Co  Co126  1  0.25050785  0.00109960  0.00137386  1
  Co  Co127  1  0.74891790  0.00131776  -0.00221226  1
