# generated using pymatgen
data_Fe45Co19
_symmetry_space_group_name_H-M   'P 1'
_cell_length_a   11.41349700
_cell_length_b   11.41399005
_cell_length_c   11.41568491
_cell_angle_alpha   90.00159892
_cell_angle_beta   89.99659125
_cell_angle_gamma   89.99852889
_symmetry_Int_Tables_number   1
_chemical_formula_structural   Fe45Co19
_chemical_formula_sum   'Fe90 Co38'
_cell_volume   1487.16169352
_cell_formula_units_Z   2
loop_
 _symmetry_equiv_pos_site_id
 _symmetry_equiv_pos_as_xyz
  1  'x, y, z'
loop_
 _atom_site_type_symbol
 _atom_site_label
 _atom_site_symmetry_multiplicity
 _atom_site_fract_x
 _atom_site_fract_y
 _atom_site_fract_z
 _atom_site_occupancy
  Fe  Fe0  1  0.50148774  0.49719692  0.50047515  1
  Fe  Fe1  1  0.12619810  0.13119885  0.12806905  1
  Fe  Fe2  1  0.25423624  0.75175653  0.25228895  1
  Fe  Fe3  1  0.62098679  0.87742217  0.37469959  1
  Fe  Fe4  1  0.75063363  0.24835691  0.25163764  1
  Fe  Fe5  1  0.13000393  0.37469544  0.36928907  1
  Fe  Fe6  1  0.62809463  0.37081636  0.62367494  1
  Fe  Fe7  1  0.24935939  0.49844623  0.00327097  1
  Fe  Fe8  1  0.62797565  0.12603705  0.87789933  1
  Fe  Fe9  1  0.49971097  0.75177143  0.75207171  1
  Fe  Fe10  1  0.37488298  0.37284556  0.62369733  1
  Fe  Fe11  1  0.62625918  0.37453423  0.87508044  1
  Fe  Fe12  1  0.00166150  0.00148277  0.00322318  1
  Fe  Fe13  1  0.37286719  0.37322496  0.12710445  1
  Fe  Fe14  1  0.12271737  0.37104126  0.62439344  1
  Fe  Fe15  1  0.49997431  0.49899825  0.00095197  1
  Fe  Fe16  1  0.62591544  0.12519082  0.37310418  1
  Fe  Fe17  1  0.74551101  -0.00028054  0.74790699  1
  Fe  Fe18  1  0.12609757  0.87860556  0.87394809  1
  Fe  Fe19  1  0.49924770  0.25067120  -0.00098219  1
  Fe  Fe20  1  -0.00107678  0.24622823  0.49278910  1
  Fe  Fe21  1  0.24805862  0.00094732  0.50342748  1
  Fe  Fe22  1  0.37404451  0.87988133  0.87600122  1
  Fe  Fe23  1  0.12536171  0.87237743  0.12618373  1
  Fe  Fe24  1  0.37771227  0.12413786  0.62570162  1
  Fe  Fe25  1  0.87345866  0.37659976  0.87420141  1
  Fe  Fe26  1  0.62643098  0.62427117  0.87508282  1
  Fe  Fe27  1  0.12655802  0.62440996  0.37520474  1
  Fe  Fe28  1  0.87436473  0.37397176  0.12631188  1
  Fe  Fe29  1  0.74970239  0.75138548  0.75074440  1
  Fe  Fe30  1  0.37442591  0.37598247  0.87375132  1
  Fe  Fe31  1  0.12437347  0.62647474  0.12622814  1
  Fe  Fe32  1  0.25188254  0.75092168  0.50092888  1
  Fe  Fe33  1  0.00241632  0.00323217  0.74744663  1
  Fe  Fe34  1  -0.00277852  0.75170973  0.49796562  1
  Fe  Fe35  1  0.50024717  0.24783423  0.75190192  1
  Fe  Fe36  1  -0.00023729  0.24984284  0.00025922  1
  Fe  Fe37  1  0.62304409  0.62803010  0.12684853  1
  Fe  Fe38  1  0.87174084  0.12368964  0.12760378  1
  Fe  Fe39  1  0.37244899  0.12136868  0.87668150  1
  Fe  Fe40  1  0.49841171  0.24920712  0.25189935  1
  Fe  Fe41  1  0.87490215  0.62669224  0.12530430  1
  Fe  Fe42  1  0.50112011  0.24978690  0.49742751  1
  Fe  Fe43  1  0.12422797  0.62606982  0.62364367  1
  Fe  Fe44  1  0.87420299  0.87805490  0.87567870  1
  Fe  Fe45  1  -0.00010109  0.24682503  0.75185600  1
  Fe  Fe46  1  0.49989710  0.49904074  0.25121154  1
  Fe  Fe47  1  0.24932472  0.24910084  0.49682589  1
  Fe  Fe48  1  0.37265650  0.62036398  0.37804058  1
  Fe  Fe49  1  0.74938969  0.75252437  0.00013243  1
  Fe  Fe50  1  0.25243747  0.75154331  -0.00026572  1
  Fe  Fe51  1  0.50368327  -0.00058798  0.00050699  1
  Fe  Fe52  1  0.61881697  0.87206308  0.12773511  1
  Fe  Fe53  1  0.74969395  0.75193757  0.25296023  1
  Fe  Fe54  1  0.87280272  0.62501649  0.62275505  1
  Fe  Fe55  1  0.74948763  0.49946833  0.00149394  1
  Fe  Fe56  1  0.87381880  0.87575737  0.62375498  1
  Fe  Fe57  1  0.75077509  0.25028618  0.74922154  1
  Fe  Fe58  1  0.12439110  0.87870696  0.37551011  1
  Fe  Fe59  1  0.12641748  0.62558898  0.87451149  1
  Fe  Fe60  1  0.62662771  0.62879748  0.62277121  1
  Fe  Fe61  1  0.37798421  0.62856201  0.12534225  1
  Fe  Fe62  1  0.87297232  0.62301867  0.37474961  1
  Fe  Fe63  1  -0.00256795  0.50093250  0.74968201  1
  Fe  Fe64  1  -0.00101674  0.75035616  -0.00232574  1
  Fe  Fe65  1  0.25022438  0.49996139  0.74543655  1
  Fe  Fe66  1  -0.00080360  0.75158828  0.25267165  1
  Fe  Fe67  1  0.12567017  0.37385504  0.87569465  1
  Fe  Fe68  1  0.87490066  0.87616767  0.12684856  1
  Fe  Fe69  1  0.62525832  0.37218777  0.12656412  1
  Fe  Fe70  1  0.25281992  -0.00131723  0.24697644  1
  Fe  Fe71  1  -0.00212213  0.74910824  0.75153103  1
  Fe  Fe72  1  0.87417762  0.12686209  0.62161823  1
  Fe  Fe73  1  0.38052389  0.87897387  0.62419134  1
  Fe  Fe74  1  0.87249213  0.12226656  0.87756807  1
  Fe  Fe75  1  0.87654233  0.88231856  0.37366383  1
  Fe  Fe76  1  0.00052638  0.49776151  0.49859750  1
  Fe  Fe77  1  0.74625926  0.00052648  0.50148994  1
  Fe  Fe78  1  0.62804438  0.62183264  0.37525149  1
  Fe  Fe79  1  0.37552660  0.62311447  0.87380002  1
  Fe  Fe80  1  0.50202055  0.49969088  0.74702381  1
  Fe  Fe81  1  0.37581291  0.12474622  0.12260688  1
  Fe  Fe82  1  0.12282518  0.87491484  0.62501977  1
  Fe  Fe83  1  0.37521316  0.12150762  0.37639737  1
  Fe  Fe84  1  0.49894600  0.75029814  0.49669313  1
  Fe  Fe85  1  0.86982923  0.37636136  0.37541441  1
  Fe  Fe86  1  0.00036248  0.49875156  0.24908662  1
  Fe  Fe87  1  0.24921478  0.24639341  0.75172965  1
  Fe  Fe88  1  0.00099385  0.49961174  0.00119669  1
  Fe  Fe89  1  0.25263610  0.75139030  0.74753387  1
  Co  Co90  1  0.37555587  0.88011871  0.37749138  1
  Co  Co91  1  0.24832312  0.00192308  0.74558251  1
  Co  Co92  1  0.74692023  -0.00281789  0.00411033  1
  Co  Co93  1  0.25178099  0.50233648  0.24673394  1
  Co  Co94  1  0.37409073  0.37742033  0.37572884  1
  Co  Co95  1  0.75003284  0.49905195  0.74665719  1
  Co  Co96  1  0.74417539  -0.00136905  0.24795232  1
  Co  Co97  1  0.37745266  0.62512122  0.62319778  1
  Co  Co98  1  0.25533194  0.24682816  0.25266272  1
  Co  Co99  1  0.87227651  0.62467213  0.87622066  1
  Co  Co100  1  0.24772562  -0.00090308  0.00559582  1
  Co  Co101  1  0.74949256  0.49992878  0.24724266  1
  Co  Co102  1  0.62617449  0.87516650  0.87518024  1
  Co  Co103  1  0.12627792  0.12314905  0.87752424  1
  Co  Co104  1  0.24811597  0.49829273  0.50359310  1
  Co  Co105  1  0.12405039  0.12918394  0.62282319  1
  Co  Co106  1  0.00114365  0.00226429  0.50289642  1
  Co  Co107  1  0.62200996  0.87252245  0.62302406  1
  Co  Co108  1  -0.00460386  0.24951895  0.25415552  1
  Co  Co109  1  0.50421304  0.00143264  0.75235615  1
  Co  Co110  1  0.62657992  0.37428311  0.37379987  1
  Co  Co111  1  0.49718372  0.74867077  0.25753113  1
  Co  Co112  1  0.50388845  0.00326278  0.50011075  1
  Co  Co113  1  0.62386603  0.12741377  0.62553371  1
  Co  Co114  1  0.50003748  0.75018177  -0.00495025  1
  Co  Co115  1  0.87709154  0.37098948  0.62320241  1
  Co  Co116  1  0.87311411  0.11730713  0.37278983  1
  Co  Co117  1  0.00322593  0.00109929  0.24547975  1
  Co  Co118  1  0.25077143  0.25157355  -0.00142641  1
  Co  Co119  1  0.12584624  0.37078164  0.12902210  1
  Co  Co120  1  0.75017078  0.24698749  0.49704187  1
  Co  Co121  1  0.74962381  0.49828748  0.50333141  1
  Co  Co122  1  0.49866683  0.00268922  0.24883246  1
  Co  Co123  1  0.75164873  0.75373346  0.49541383  1
  Co  Co124  1  0.75173949  0.25139579  0.00061273  1
  Co  Co125  1  0.38057947  0.87278638  0.12437268  1
  Co  Co126  1  0.12593895  0.12113141  0.37167968  1
  Co  Co127  1  0.62523671  0.12828907  0.12479649  1
